
---------- Begin Simulation Statistics ----------
final_tick                                85332166500                       # Number of ticks from beginning of simulation (restored from checkpoints and never reset)
host_inst_rate                                 276363                       # Simulator instruction rate (inst/s)
host_mem_usage                                 692788                       # Number of bytes of host memory used
host_op_rate                                   276905                       # Simulator op (including micro ops) rate (op/s)
host_seconds                                   361.84                       # Real time elapsed on the host
host_tick_rate                              235826201                       # Simulator tick rate (ticks/s)
sim_freq                                 1000000000000                       # Frequency of simulated ticks
sim_insts                                   100000001                       # Number of instructions simulated
sim_ops                                     100196363                       # Number of ops (including micro ops) simulated
sim_seconds                                  0.085332                       # Number of seconds simulated
sim_ticks                                 85332166500                       # Number of ticks simulated
system.cpu.branchPred.BTBCorrect                    0                       # Number of correct BTB predictions (this stat may not work properly.
system.cpu.branchPred.BTBHitPct             99.694597                       # BTB Hit Percentage
system.cpu.branchPred.BTBHits                 2095393                       # Number of BTB hits
system.cpu.branchPred.BTBLookups              2101812                       # Number of BTB lookups
system.cpu.branchPred.RASInCorrect                  5                       # Number of incorrect RAS predictions.
system.cpu.branchPred.condIncorrect             81341                       # Number of conditional branches incorrect
system.cpu.branchPred.condPredicted           3727666                       # Number of conditional branches predicted
system.cpu.branchPred.indirectHits                291                       # Number of indirect target hits.
system.cpu.branchPred.indirectLookups             808                       # Number of indirect predictor lookups.
system.cpu.branchPred.indirectMisses              517                       # Number of indirect misses.
system.cpu.branchPred.lookups                 4477741                       # Number of BP lookups
system.cpu.branchPred.usedRAS                   65339                       # Number of times the RAS was used to get a target.
system.cpu.branchPredindirectMispredicted          171                       # Number of mispredicted indirect branches.
system.cpu.committedInsts                   100000001                       # Number of instructions committed
system.cpu.committedOps                     100196363                       # Number of ops (including micro ops) committed
system.cpu.cpi                               1.706643                       # CPI: cycles per instruction
system.cpu.discardedOps                        190647                       # Number of ops (including micro ops) which were discarded before commit
system.cpu.dtb.accesses                             0                       # DTB accesses
system.cpu.dtb.align_faults                         0                       # Number of TLB faults due to alignment restrictions
system.cpu.dtb.domain_faults                        0                       # Number of TLB faults due to domain restrictions
system.cpu.dtb.flush_entries                        0                       # Number of entries that have been flushed from TLB
system.cpu.dtb.flush_tlb                            0                       # Number of times complete TLB was flushed
system.cpu.dtb.flush_tlb_asid                       0                       # Number of times TLB was flushed by ASID
system.cpu.dtb.flush_tlb_mva                        0                       # Number of times TLB was flushed by MVA
system.cpu.dtb.flush_tlb_mva_asid                   0                       # Number of times TLB was flushed by MVA & ASID
system.cpu.dtb.hits                                 0                       # DTB hits
system.cpu.dtb.inst_accesses                        0                       # ITB inst accesses
system.cpu.dtb.inst_hits                            0                       # ITB inst hits
system.cpu.dtb.inst_misses                          0                       # ITB inst misses
system.cpu.dtb.misses                               0                       # DTB misses
system.cpu.dtb.perms_faults                         0                       # Number of TLB faults due to permissions restrictions
system.cpu.dtb.prefetch_faults                      0                       # Number of TLB faults due to prefetch
system.cpu.dtb.read_accesses                        0                       # DTB read accesses
system.cpu.dtb.read_hits                            0                       # DTB read hits
system.cpu.dtb.read_misses                          0                       # DTB read misses
system.cpu.dtb.stage2_mmu.stage2_tlb.accesses            0                       # DTB accesses
system.cpu.dtb.stage2_mmu.stage2_tlb.align_faults            0                       # Number of TLB faults due to alignment restrictions
system.cpu.dtb.stage2_mmu.stage2_tlb.domain_faults            0                       # Number of TLB faults due to domain restrictions
system.cpu.dtb.stage2_mmu.stage2_tlb.flush_entries            0                       # Number of entries that have been flushed from TLB
system.cpu.dtb.stage2_mmu.stage2_tlb.flush_tlb            0                       # Number of times complete TLB was flushed
system.cpu.dtb.stage2_mmu.stage2_tlb.flush_tlb_asid            0                       # Number of times TLB was flushed by ASID
system.cpu.dtb.stage2_mmu.stage2_tlb.flush_tlb_mva            0                       # Number of times TLB was flushed by MVA
system.cpu.dtb.stage2_mmu.stage2_tlb.flush_tlb_mva_asid            0                       # Number of times TLB was flushed by MVA & ASID
system.cpu.dtb.stage2_mmu.stage2_tlb.hits            0                       # DTB hits
system.cpu.dtb.stage2_mmu.stage2_tlb.inst_accesses            0                       # ITB inst accesses
system.cpu.dtb.stage2_mmu.stage2_tlb.inst_hits            0                       # ITB inst hits
system.cpu.dtb.stage2_mmu.stage2_tlb.inst_misses            0                       # ITB inst misses
system.cpu.dtb.stage2_mmu.stage2_tlb.misses            0                       # DTB misses
system.cpu.dtb.stage2_mmu.stage2_tlb.perms_faults            0                       # Number of TLB faults due to permissions restrictions
system.cpu.dtb.stage2_mmu.stage2_tlb.prefetch_faults            0                       # Number of TLB faults due to prefetch
system.cpu.dtb.stage2_mmu.stage2_tlb.read_accesses            0                       # DTB read accesses
system.cpu.dtb.stage2_mmu.stage2_tlb.read_hits            0                       # DTB read hits
system.cpu.dtb.stage2_mmu.stage2_tlb.read_misses            0                       # DTB read misses
system.cpu.dtb.stage2_mmu.stage2_tlb.walker.walkRequestOrigin_Requested::Data            0                       # Table walker requests started/completed, data/inst
system.cpu.dtb.stage2_mmu.stage2_tlb.walker.walkRequestOrigin_Requested::Inst            0                       # Table walker requests started/completed, data/inst
system.cpu.dtb.stage2_mmu.stage2_tlb.walker.walkRequestOrigin_Requested::total            0                       # Table walker requests started/completed, data/inst
system.cpu.dtb.stage2_mmu.stage2_tlb.walker.walkRequestOrigin_Completed::Data            0                       # Table walker requests started/completed, data/inst
system.cpu.dtb.stage2_mmu.stage2_tlb.walker.walkRequestOrigin_Completed::Inst            0                       # Table walker requests started/completed, data/inst
system.cpu.dtb.stage2_mmu.stage2_tlb.walker.walkRequestOrigin_Completed::total            0                       # Table walker requests started/completed, data/inst
system.cpu.dtb.stage2_mmu.stage2_tlb.walker.walkRequestOrigin::total            0                       # Table walker requests started/completed, data/inst
system.cpu.dtb.stage2_mmu.stage2_tlb.walker.walks            0                       # Table walker walks requested
system.cpu.dtb.stage2_mmu.stage2_tlb.write_accesses            0                       # DTB write accesses
system.cpu.dtb.stage2_mmu.stage2_tlb.write_hits            0                       # DTB write hits
system.cpu.dtb.stage2_mmu.stage2_tlb.write_misses            0                       # DTB write misses
system.cpu.dtb.walker.walkRequestOrigin_Requested::Data            0                       # Table walker requests started/completed, data/inst
system.cpu.dtb.walker.walkRequestOrigin_Requested::Inst            0                       # Table walker requests started/completed, data/inst
system.cpu.dtb.walker.walkRequestOrigin_Requested::total            0                       # Table walker requests started/completed, data/inst
system.cpu.dtb.walker.walkRequestOrigin_Completed::Data            0                       # Table walker requests started/completed, data/inst
system.cpu.dtb.walker.walkRequestOrigin_Completed::Inst            0                       # Table walker requests started/completed, data/inst
system.cpu.dtb.walker.walkRequestOrigin_Completed::total            0                       # Table walker requests started/completed, data/inst
system.cpu.dtb.walker.walkRequestOrigin::total            0                       # Table walker requests started/completed, data/inst
system.cpu.dtb.walker.walks                         0                       # Table walker walks requested
system.cpu.dtb.write_accesses                       0                       # DTB write accesses
system.cpu.dtb.write_hits                           0                       # DTB write hits
system.cpu.dtb.write_misses                         0                       # DTB write misses
system.cpu.fetch2.amo_instructions                  0                       # Number of memory atomic instructions successfully decoded
system.cpu.fetch2.fp_instructions                   0                       # Number of floating point instructions successfully decoded
system.cpu.fetch2.int_instructions           42610067                       # Number of integer instructions successfully decoded
system.cpu.fetch2.load_instructions          43402286                       # Number of memory load instructions successfully decoded
system.cpu.fetch2.store_instructions         11001396                       # Number of memory store instructions successfully decoded
system.cpu.fetch2.vec_instructions                  0                       # Number of SIMD instructions successfully decoded
system.cpu.idleCycles                        37936729                       # Total number of cycles that the object has spent stopped
system.cpu.ipc                               0.585946                       # IPC: instructions per cycle
system.cpu.itb.accesses                             0                       # DTB accesses
system.cpu.itb.align_faults                         0                       # Number of TLB faults due to alignment restrictions
system.cpu.itb.domain_faults                        0                       # Number of TLB faults due to domain restrictions
system.cpu.itb.flush_entries                        0                       # Number of entries that have been flushed from TLB
system.cpu.itb.flush_tlb                            0                       # Number of times complete TLB was flushed
system.cpu.itb.flush_tlb_asid                       0                       # Number of times TLB was flushed by ASID
system.cpu.itb.flush_tlb_mva                        0                       # Number of times TLB was flushed by MVA
system.cpu.itb.flush_tlb_mva_asid                   0                       # Number of times TLB was flushed by MVA & ASID
system.cpu.itb.hits                                 0                       # DTB hits
system.cpu.itb.inst_accesses                        0                       # ITB inst accesses
system.cpu.itb.inst_hits                            0                       # ITB inst hits
system.cpu.itb.inst_misses                          0                       # ITB inst misses
system.cpu.itb.misses                               0                       # DTB misses
system.cpu.itb.perms_faults                         0                       # Number of TLB faults due to permissions restrictions
system.cpu.itb.prefetch_faults                      0                       # Number of TLB faults due to prefetch
system.cpu.itb.read_accesses                        0                       # DTB read accesses
system.cpu.itb.read_hits                            0                       # DTB read hits
system.cpu.itb.read_misses                          0                       # DTB read misses
system.cpu.itb.stage2_mmu.stage2_tlb.accesses            0                       # DTB accesses
system.cpu.itb.stage2_mmu.stage2_tlb.align_faults            0                       # Number of TLB faults due to alignment restrictions
system.cpu.itb.stage2_mmu.stage2_tlb.domain_faults            0                       # Number of TLB faults due to domain restrictions
system.cpu.itb.stage2_mmu.stage2_tlb.flush_entries            0                       # Number of entries that have been flushed from TLB
system.cpu.itb.stage2_mmu.stage2_tlb.flush_tlb            0                       # Number of times complete TLB was flushed
system.cpu.itb.stage2_mmu.stage2_tlb.flush_tlb_asid            0                       # Number of times TLB was flushed by ASID
system.cpu.itb.stage2_mmu.stage2_tlb.flush_tlb_mva            0                       # Number of times TLB was flushed by MVA
system.cpu.itb.stage2_mmu.stage2_tlb.flush_tlb_mva_asid            0                       # Number of times TLB was flushed by MVA & ASID
system.cpu.itb.stage2_mmu.stage2_tlb.hits            0                       # DTB hits
system.cpu.itb.stage2_mmu.stage2_tlb.inst_accesses            0                       # ITB inst accesses
system.cpu.itb.stage2_mmu.stage2_tlb.inst_hits            0                       # ITB inst hits
system.cpu.itb.stage2_mmu.stage2_tlb.inst_misses            0                       # ITB inst misses
system.cpu.itb.stage2_mmu.stage2_tlb.misses            0                       # DTB misses
system.cpu.itb.stage2_mmu.stage2_tlb.perms_faults            0                       # Number of TLB faults due to permissions restrictions
system.cpu.itb.stage2_mmu.stage2_tlb.prefetch_faults            0                       # Number of TLB faults due to prefetch
system.cpu.itb.stage2_mmu.stage2_tlb.read_accesses            0                       # DTB read accesses
system.cpu.itb.stage2_mmu.stage2_tlb.read_hits            0                       # DTB read hits
system.cpu.itb.stage2_mmu.stage2_tlb.read_misses            0                       # DTB read misses
system.cpu.itb.stage2_mmu.stage2_tlb.walker.walkRequestOrigin_Requested::Data            0                       # Table walker requests started/completed, data/inst
system.cpu.itb.stage2_mmu.stage2_tlb.walker.walkRequestOrigin_Requested::Inst            0                       # Table walker requests started/completed, data/inst
system.cpu.itb.stage2_mmu.stage2_tlb.walker.walkRequestOrigin_Requested::total            0                       # Table walker requests started/completed, data/inst
system.cpu.itb.stage2_mmu.stage2_tlb.walker.walkRequestOrigin_Completed::Data            0                       # Table walker requests started/completed, data/inst
system.cpu.itb.stage2_mmu.stage2_tlb.walker.walkRequestOrigin_Completed::Inst            0                       # Table walker requests started/completed, data/inst
system.cpu.itb.stage2_mmu.stage2_tlb.walker.walkRequestOrigin_Completed::total            0                       # Table walker requests started/completed, data/inst
system.cpu.itb.stage2_mmu.stage2_tlb.walker.walkRequestOrigin::total            0                       # Table walker requests started/completed, data/inst
system.cpu.itb.stage2_mmu.stage2_tlb.walker.walks            0                       # Table walker walks requested
system.cpu.itb.stage2_mmu.stage2_tlb.write_accesses            0                       # DTB write accesses
system.cpu.itb.stage2_mmu.stage2_tlb.write_hits            0                       # DTB write hits
system.cpu.itb.stage2_mmu.stage2_tlb.write_misses            0                       # DTB write misses
system.cpu.itb.walker.walkRequestOrigin_Requested::Data            0                       # Table walker requests started/completed, data/inst
system.cpu.itb.walker.walkRequestOrigin_Requested::Inst            0                       # Table walker requests started/completed, data/inst
system.cpu.itb.walker.walkRequestOrigin_Requested::total            0                       # Table walker requests started/completed, data/inst
system.cpu.itb.walker.walkRequestOrigin_Completed::Data            0                       # Table walker requests started/completed, data/inst
system.cpu.itb.walker.walkRequestOrigin_Completed::Inst            0                       # Table walker requests started/completed, data/inst
system.cpu.itb.walker.walkRequestOrigin_Completed::total            0                       # Table walker requests started/completed, data/inst
system.cpu.itb.walker.walkRequestOrigin::total            0                       # Table walker requests started/completed, data/inst
system.cpu.itb.walker.walks                         0                       # Table walker walks requested
system.cpu.itb.write_accesses                       0                       # DTB write accesses
system.cpu.itb.write_hits                           0                       # DTB write hits
system.cpu.itb.write_misses                         0                       # DTB write misses
system.cpu.numCycles                        170664333                       # number of cpu cycles simulated
system.cpu.numFetchSuspends                         0                       # Number of times Execute suspended instruction fetching
system.cpu.numWorkItemsCompleted                    0                       # number of work items this cpu completed
system.cpu.numWorkItemsStarted                      0                       # number of work items this cpu started
system.cpu.op_class_0::No_OpClass                   0      0.00%      0.00% # Class of committed instruction
system.cpu.op_class_0::IntAlu                46531400     46.44%     46.44% # Class of committed instruction
system.cpu.op_class_0::IntMult                  20720      0.02%     46.46% # Class of committed instruction
system.cpu.op_class_0::IntDiv                       0      0.00%     46.46% # Class of committed instruction
system.cpu.op_class_0::FloatAdd                     0      0.00%     46.46% # Class of committed instruction
system.cpu.op_class_0::FloatCmp                     0      0.00%     46.46% # Class of committed instruction
system.cpu.op_class_0::FloatCvt                     0      0.00%     46.46% # Class of committed instruction
system.cpu.op_class_0::FloatMult                    0      0.00%     46.46% # Class of committed instruction
system.cpu.op_class_0::FloatMultAcc                 0      0.00%     46.46% # Class of committed instruction
system.cpu.op_class_0::FloatDiv                     0      0.00%     46.46% # Class of committed instruction
system.cpu.op_class_0::FloatMisc                    0      0.00%     46.46% # Class of committed instruction
system.cpu.op_class_0::FloatSqrt                    0      0.00%     46.46% # Class of committed instruction
system.cpu.op_class_0::SimdAdd                      0      0.00%     46.46% # Class of committed instruction
system.cpu.op_class_0::SimdAddAcc                   0      0.00%     46.46% # Class of committed instruction
system.cpu.op_class_0::SimdAlu                      0      0.00%     46.46% # Class of committed instruction
system.cpu.op_class_0::SimdCmp                      0      0.00%     46.46% # Class of committed instruction
system.cpu.op_class_0::SimdCvt                      0      0.00%     46.46% # Class of committed instruction
system.cpu.op_class_0::SimdMisc                     0      0.00%     46.46% # Class of committed instruction
system.cpu.op_class_0::SimdMult                     0      0.00%     46.46% # Class of committed instruction
system.cpu.op_class_0::SimdMultAcc                  0      0.00%     46.46% # Class of committed instruction
system.cpu.op_class_0::SimdShift                    0      0.00%     46.46% # Class of committed instruction
system.cpu.op_class_0::SimdShiftAcc                 0      0.00%     46.46% # Class of committed instruction
system.cpu.op_class_0::SimdDiv                      0      0.00%     46.46% # Class of committed instruction
system.cpu.op_class_0::SimdSqrt                     0      0.00%     46.46% # Class of committed instruction
system.cpu.op_class_0::SimdFloatAdd                 0      0.00%     46.46% # Class of committed instruction
system.cpu.op_class_0::SimdFloatAlu                 0      0.00%     46.46% # Class of committed instruction
system.cpu.op_class_0::SimdFloatCmp                 0      0.00%     46.46% # Class of committed instruction
system.cpu.op_class_0::SimdFloatCvt                 0      0.00%     46.46% # Class of committed instruction
system.cpu.op_class_0::SimdFloatDiv                 0      0.00%     46.46% # Class of committed instruction
system.cpu.op_class_0::SimdFloatMisc               18      0.00%     46.46% # Class of committed instruction
system.cpu.op_class_0::SimdFloatMult                0      0.00%     46.46% # Class of committed instruction
system.cpu.op_class_0::SimdFloatMultAcc             0      0.00%     46.46% # Class of committed instruction
system.cpu.op_class_0::SimdFloatSqrt                0      0.00%     46.46% # Class of committed instruction
system.cpu.op_class_0::SimdReduceAdd                0      0.00%     46.46% # Class of committed instruction
system.cpu.op_class_0::SimdReduceAlu                0      0.00%     46.46% # Class of committed instruction
system.cpu.op_class_0::SimdReduceCmp                0      0.00%     46.46% # Class of committed instruction
system.cpu.op_class_0::SimdFloatReduceAdd            0      0.00%     46.46% # Class of committed instruction
system.cpu.op_class_0::SimdFloatReduceCmp            0      0.00%     46.46% # Class of committed instruction
system.cpu.op_class_0::SimdAes                      0      0.00%     46.46% # Class of committed instruction
system.cpu.op_class_0::SimdAesMix                   0      0.00%     46.46% # Class of committed instruction
system.cpu.op_class_0::SimdSha1Hash                 0      0.00%     46.46% # Class of committed instruction
system.cpu.op_class_0::SimdSha1Hash2                0      0.00%     46.46% # Class of committed instruction
system.cpu.op_class_0::SimdSha256Hash               0      0.00%     46.46% # Class of committed instruction
system.cpu.op_class_0::SimdSha256Hash2              0      0.00%     46.46% # Class of committed instruction
system.cpu.op_class_0::SimdShaSigma2                0      0.00%     46.46% # Class of committed instruction
system.cpu.op_class_0::SimdShaSigma3                0      0.00%     46.46% # Class of committed instruction
system.cpu.op_class_0::SimdPredAlu                  0      0.00%     46.46% # Class of committed instruction
system.cpu.op_class_0::MemRead               42693601     42.61%     89.07% # Class of committed instruction
system.cpu.op_class_0::MemWrite              10950624     10.93%    100.00% # Class of committed instruction
system.cpu.op_class_0::FloatMemRead                 0      0.00%    100.00% # Class of committed instruction
system.cpu.op_class_0::FloatMemWrite                0      0.00%    100.00% # Class of committed instruction
system.cpu.op_class_0::IprAccess                    0      0.00%    100.00% # Class of committed instruction
system.cpu.op_class_0::InstPrefetch                 0      0.00%    100.00% # Class of committed instruction
system.cpu.op_class_0::total                100196363                       # Class of committed instruction
system.cpu.tickCycles                       132727604                       # Number of cycles that the object actually ticked
system.cpu.workload.numSyscalls                    84                       # Number of system calls
system.membus.snoop_filter.hit_multi_requests            0                       # Number of requests hitting in the snoop filter with multiple (>1) holders of the requested data.
system.membus.snoop_filter.hit_multi_snoops            0                       # Number of snoops hitting in the snoop filter with multiple (>1) holders of the requested data.
system.membus.snoop_filter.hit_single_requests       190324                       # Number of requests hitting in the snoop filter with a single holder of the requested data.
system.membus.snoop_filter.hit_single_snoops            0                       # Number of snoops hitting in the snoop filter with a single holder of the requested data.
system.membus.snoop_filter.tot_requests        413819                       # Total number of requests made to the snoop filter.
system.membus.snoop_filter.tot_snoops               0                       # Total number of snoops made to the snoop filter.
system.tol2bus.snoop_filter.hit_multi_requests          120                       # Number of requests hitting in the snoop filter with multiple (>1) holders of the requested data.
system.tol2bus.snoop_filter.hit_multi_snoops            2                       # Number of snoops hitting in the snoop filter with multiple (>1) holders of the requested data.
system.tol2bus.snoop_filter.hit_single_requests       710871                       # Number of requests hitting in the snoop filter with a single holder of the requested data.
system.tol2bus.snoop_filter.hit_single_snoops         7515                       # Number of snoops hitting in the snoop filter with a single holder of the requested data.
system.tol2bus.snoop_filter.tot_requests      1423208                       # Total number of requests made to the snoop filter.
system.tol2bus.snoop_filter.tot_snoops           7517                       # Total number of snoops made to the snoop filter.
system.membus.pwrStateResidencyTicks::UNDEFINED  85332166500                       # Cumulative time (in ticks) in various power states
system.membus.trans_dist::ReadResp              83234                       # Transaction distribution
system.membus.trans_dist::WritebackDirty       126267                       # Transaction distribution
system.membus.trans_dist::CleanEvict            64046                       # Transaction distribution
system.membus.trans_dist::ReadExReq            140272                       # Transaction distribution
system.membus.trans_dist::ReadExResp           140271                       # Transaction distribution
system.membus.trans_dist::ReadSharedReq         83234                       # Transaction distribution
system.membus.pkt_count_system.l2.mem_side::system.mem_ctrls.port       637324                       # Packet count per connected master and slave (bytes)
system.membus.pkt_count::total                 637324                       # Packet count per connected master and slave (bytes)
system.membus.pkt_size_system.l2.mem_side::system.mem_ctrls.port     22385408                       # Cumulative packet size per connected master and slave (bytes)
system.membus.pkt_size::total                22385408                       # Cumulative packet size per connected master and slave (bytes)
system.membus.snoops                                0                       # Total snoops (count)
system.membus.snoopTraffic                          0                       # Total snoop traffic (bytes)
system.membus.snoop_fanout::samples            223506                       # Request fanout histogram
system.membus.snoop_fanout::mean                    0                       # Request fanout histogram
system.membus.snoop_fanout::stdev                   0                       # Request fanout histogram
system.membus.snoop_fanout::underflows              0      0.00%      0.00% # Request fanout histogram
system.membus.snoop_fanout::0                  223506    100.00%    100.00% # Request fanout histogram
system.membus.snoop_fanout::1                       0      0.00%    100.00% # Request fanout histogram
system.membus.snoop_fanout::overflows               0      0.00%    100.00% # Request fanout histogram
system.membus.snoop_fanout::min_value               0                       # Request fanout histogram
system.membus.snoop_fanout::max_value               0                       # Request fanout histogram
system.membus.snoop_fanout::total              223506                       # Request fanout histogram
system.membus.respLayer1.occupancy         1206228000                       # Layer occupancy (ticks)
system.membus.respLayer1.utilization              1.4                       # Layer utilization (%)
system.membus.reqLayer0.occupancy           965842500                       # Layer occupancy (ticks)
system.membus.reqLayer0.utilization               1.1                       # Layer utilization (%)
system.tol2bus.pwrStateResidencyTicks::UNDEFINED  85332166500                       # Cumulative time (in ticks) in various power states
system.tol2bus.trans_dist::ReadResp            425998                       # Transaction distribution
system.tol2bus.trans_dist::WritebackDirty       755819                       # Transaction distribution
system.tol2bus.trans_dist::WritebackClean          302                       # Transaction distribution
system.tol2bus.trans_dist::CleanEvict          151206                       # Transaction distribution
system.tol2bus.trans_dist::ReadExReq           286341                       # Transaction distribution
system.tol2bus.trans_dist::ReadExResp          286340                       # Transaction distribution
system.tol2bus.trans_dist::ReadCleanReq           747                       # Transaction distribution
system.tol2bus.trans_dist::ReadSharedReq       425251                       # Transaction distribution
system.tol2bus.pkt_count_system.cpu.icache.mem_side::system.l2.cpu_side         1796                       # Packet count per connected master and slave (bytes)
system.tol2bus.pkt_count_system.cpu.dcache.mem_side::system.l2.cpu_side      2133750                       # Packet count per connected master and slave (bytes)
system.tol2bus.pkt_count::total               2135546                       # Packet count per connected master and slave (bytes)
system.tol2bus.pkt_size_system.cpu.icache.mem_side::system.l2.cpu_side        67136                       # Cumulative packet size per connected master and slave (bytes)
system.tol2bus.pkt_size_system.cpu.dcache.mem_side::system.l2.cpu_side     85833152                       # Cumulative packet size per connected master and slave (bytes)
system.tol2bus.pkt_size::total               85900288                       # Cumulative packet size per connected master and slave (bytes)
system.tol2bus.snoops                          196458                       # Total snoops (count)
system.tol2bus.snoopTraffic                   8081088                       # Total snoop traffic (bytes)
system.tol2bus.snoop_fanout::samples           908797                       # Request fanout histogram
system.tol2bus.snoop_fanout::mean            0.008408                       # Request fanout histogram
system.tol2bus.snoop_fanout::stdev           0.091332                       # Request fanout histogram
system.tol2bus.snoop_fanout::underflows             0      0.00%      0.00% # Request fanout histogram
system.tol2bus.snoop_fanout::0                 901158     99.16%     99.16% # Request fanout histogram
system.tol2bus.snoop_fanout::1                   7637      0.84%    100.00% # Request fanout histogram
system.tol2bus.snoop_fanout::2                      2      0.00%    100.00% # Request fanout histogram
system.tol2bus.snoop_fanout::overflows              0      0.00%    100.00% # Request fanout histogram
system.tol2bus.snoop_fanout::min_value              0                       # Request fanout histogram
system.tol2bus.snoop_fanout::max_value              2                       # Request fanout histogram
system.tol2bus.snoop_fanout::total             908797                       # Request fanout histogram
system.tol2bus.reqLayer0.occupancy         1341458000                       # Layer occupancy (ticks)
system.tol2bus.reqLayer0.utilization              1.6                       # Layer utilization (%)
system.tol2bus.respLayer1.occupancy        1067387997                       # Layer occupancy (ticks)
system.tol2bus.respLayer1.utilization             1.3                       # Layer utilization (%)
system.tol2bus.respLayer0.occupancy           1120500                       # Layer occupancy (ticks)
system.tol2bus.respLayer0.utilization             0.0                       # Layer utilization (%)
system.voltage_domain.voltage                       1                       # Voltage in Volts
system.clk_domain.clock                          1000                       # Clock period in ticks
system.l2.pwrStateResidencyTicks::UNDEFINED  85332166500                       # Cumulative time (in ticks) in various power states
system.l2.demand_hits::.cpu.inst                   78                       # number of demand (read+write) hits
system.l2.demand_hits::.cpu.data               488752                       # number of demand (read+write) hits
system.l2.demand_hits::total                   488830                       # number of demand (read+write) hits
system.l2.overall_hits::.cpu.inst                  78                       # number of overall hits
system.l2.overall_hits::.cpu.data              488752                       # number of overall hits
system.l2.overall_hits::total                  488830                       # number of overall hits
system.l2.demand_misses::.cpu.inst                669                       # number of demand (read+write) misses
system.l2.demand_misses::.cpu.data             222840                       # number of demand (read+write) misses
system.l2.demand_misses::total                 223509                       # number of demand (read+write) misses
system.l2.overall_misses::.cpu.inst               669                       # number of overall misses
system.l2.overall_misses::.cpu.data            222840                       # number of overall misses
system.l2.overall_misses::total                223509                       # number of overall misses
system.l2.demand_miss_latency::.cpu.inst     53065500                       # number of demand (read+write) miss cycles
system.l2.demand_miss_latency::.cpu.data  18746033000                       # number of demand (read+write) miss cycles
system.l2.demand_miss_latency::total      18799098500                       # number of demand (read+write) miss cycles
system.l2.overall_miss_latency::.cpu.inst     53065500                       # number of overall miss cycles
system.l2.overall_miss_latency::.cpu.data  18746033000                       # number of overall miss cycles
system.l2.overall_miss_latency::total     18799098500                       # number of overall miss cycles
system.l2.demand_accesses::.cpu.inst              747                       # number of demand (read+write) accesses
system.l2.demand_accesses::.cpu.data           711592                       # number of demand (read+write) accesses
system.l2.demand_accesses::total               712339                       # number of demand (read+write) accesses
system.l2.overall_accesses::.cpu.inst             747                       # number of overall (read+write) accesses
system.l2.overall_accesses::.cpu.data          711592                       # number of overall (read+write) accesses
system.l2.overall_accesses::total              712339                       # number of overall (read+write) accesses
system.l2.demand_miss_rate::.cpu.inst        0.895582                       # miss rate for demand accesses
system.l2.demand_miss_rate::.cpu.data        0.313157                       # miss rate for demand accesses
system.l2.demand_miss_rate::total            0.313768                       # miss rate for demand accesses
system.l2.overall_miss_rate::.cpu.inst       0.895582                       # miss rate for overall accesses
system.l2.overall_miss_rate::.cpu.data       0.313157                       # miss rate for overall accesses
system.l2.overall_miss_rate::total           0.313768                       # miss rate for overall accesses
system.l2.demand_avg_miss_latency::.cpu.inst 79320.627803                       # average overall miss latency
system.l2.demand_avg_miss_latency::.cpu.data 84123.285766                       # average overall miss latency
system.l2.demand_avg_miss_latency::total 84108.910603                       # average overall miss latency
system.l2.overall_avg_miss_latency::.cpu.inst 79320.627803                       # average overall miss latency
system.l2.overall_avg_miss_latency::.cpu.data 84123.285766                       # average overall miss latency
system.l2.overall_avg_miss_latency::total 84108.910603                       # average overall miss latency
system.l2.blocked_cycles::no_mshrs                  0                       # number of cycles access was blocked
system.l2.blocked_cycles::no_targets                0                       # number of cycles access was blocked
system.l2.blocked::no_mshrs                         0                       # number of cycles access was blocked
system.l2.blocked::no_targets                       0                       # number of cycles access was blocked
system.l2.avg_blocked_cycles::no_mshrs            nan                       # average number of cycles each access was blocked
system.l2.avg_blocked_cycles::no_targets          nan                       # average number of cycles each access was blocked
system.l2.writebacks::.writebacks              126267                       # number of writebacks
system.l2.writebacks::total                    126267                       # number of writebacks
system.l2.demand_mshr_hits::.cpu.data               3                       # number of demand (read+write) MSHR hits
system.l2.demand_mshr_hits::total                   3                       # number of demand (read+write) MSHR hits
system.l2.overall_mshr_hits::.cpu.data              3                       # number of overall MSHR hits
system.l2.overall_mshr_hits::total                  3                       # number of overall MSHR hits
system.l2.demand_mshr_misses::.cpu.inst           669                       # number of demand (read+write) MSHR misses
system.l2.demand_mshr_misses::.cpu.data        222837                       # number of demand (read+write) MSHR misses
system.l2.demand_mshr_misses::total            223506                       # number of demand (read+write) MSHR misses
system.l2.overall_mshr_misses::.cpu.inst          669                       # number of overall MSHR misses
system.l2.overall_mshr_misses::.cpu.data       222837                       # number of overall MSHR misses
system.l2.overall_mshr_misses::total           223506                       # number of overall MSHR misses
system.l2.demand_mshr_miss_latency::.cpu.inst     46375500                       # number of demand (read+write) MSHR miss cycles
system.l2.demand_mshr_miss_latency::.cpu.data  16517475000                       # number of demand (read+write) MSHR miss cycles
system.l2.demand_mshr_miss_latency::total  16563850500                       # number of demand (read+write) MSHR miss cycles
system.l2.overall_mshr_miss_latency::.cpu.inst     46375500                       # number of overall MSHR miss cycles
system.l2.overall_mshr_miss_latency::.cpu.data  16517475000                       # number of overall MSHR miss cycles
system.l2.overall_mshr_miss_latency::total  16563850500                       # number of overall MSHR miss cycles
system.l2.demand_mshr_miss_rate::.cpu.inst     0.895582                       # mshr miss rate for demand accesses
system.l2.demand_mshr_miss_rate::.cpu.data     0.313153                       # mshr miss rate for demand accesses
system.l2.demand_mshr_miss_rate::total       0.313764                       # mshr miss rate for demand accesses
system.l2.overall_mshr_miss_rate::.cpu.inst     0.895582                       # mshr miss rate for overall accesses
system.l2.overall_mshr_miss_rate::.cpu.data     0.313153                       # mshr miss rate for overall accesses
system.l2.overall_mshr_miss_rate::total      0.313764                       # mshr miss rate for overall accesses
system.l2.demand_avg_mshr_miss_latency::.cpu.inst 69320.627803                       # average overall mshr miss latency
system.l2.demand_avg_mshr_miss_latency::.cpu.data 74123.574631                       # average overall mshr miss latency
system.l2.demand_avg_mshr_miss_latency::total 74109.198411                       # average overall mshr miss latency
system.l2.overall_avg_mshr_miss_latency::.cpu.inst 69320.627803                       # average overall mshr miss latency
system.l2.overall_avg_mshr_miss_latency::.cpu.data 74123.574631                       # average overall mshr miss latency
system.l2.overall_avg_mshr_miss_latency::total 74109.198411                       # average overall mshr miss latency
system.l2.replacements                         196458                       # number of replacements
system.l2.WritebackDirty_hits::.writebacks       629552                       # number of WritebackDirty hits
system.l2.WritebackDirty_hits::total           629552                       # number of WritebackDirty hits
system.l2.WritebackDirty_accesses::.writebacks       629552                       # number of WritebackDirty accesses(hits+misses)
system.l2.WritebackDirty_accesses::total       629552                       # number of WritebackDirty accesses(hits+misses)
system.l2.WritebackClean_hits::.writebacks          293                       # number of WritebackClean hits
system.l2.WritebackClean_hits::total              293                       # number of WritebackClean hits
system.l2.WritebackClean_accesses::.writebacks          293                       # number of WritebackClean accesses(hits+misses)
system.l2.WritebackClean_accesses::total          293                       # number of WritebackClean accesses(hits+misses)
system.l2.CleanEvict_mshr_misses::.writebacks         1372                       # number of CleanEvict MSHR misses
system.l2.CleanEvict_mshr_misses::total          1372                       # number of CleanEvict MSHR misses
system.l2.CleanEvict_mshr_miss_rate::.writebacks          inf                       # mshr miss rate for CleanEvict accesses
system.l2.CleanEvict_mshr_miss_rate::total          inf                       # mshr miss rate for CleanEvict accesses
system.l2.ReadExReq_hits::.cpu.data            146069                       # number of ReadExReq hits
system.l2.ReadExReq_hits::total                146069                       # number of ReadExReq hits
system.l2.ReadExReq_misses::.cpu.data          140272                       # number of ReadExReq misses
system.l2.ReadExReq_misses::total              140272                       # number of ReadExReq misses
system.l2.ReadExReq_miss_latency::.cpu.data  12114524000                       # number of ReadExReq miss cycles
system.l2.ReadExReq_miss_latency::total   12114524000                       # number of ReadExReq miss cycles
system.l2.ReadExReq_accesses::.cpu.data        286341                       # number of ReadExReq accesses(hits+misses)
system.l2.ReadExReq_accesses::total            286341                       # number of ReadExReq accesses(hits+misses)
system.l2.ReadExReq_miss_rate::.cpu.data     0.489877                       # miss rate for ReadExReq accesses
system.l2.ReadExReq_miss_rate::total         0.489877                       # miss rate for ReadExReq accesses
system.l2.ReadExReq_avg_miss_latency::.cpu.data 86364.520360                       # average ReadExReq miss latency
system.l2.ReadExReq_avg_miss_latency::total 86364.520360                       # average ReadExReq miss latency
system.l2.ReadExReq_mshr_misses::.cpu.data       140272                       # number of ReadExReq MSHR misses
system.l2.ReadExReq_mshr_misses::total         140272                       # number of ReadExReq MSHR misses
system.l2.ReadExReq_mshr_miss_latency::.cpu.data  10711814000                       # number of ReadExReq MSHR miss cycles
system.l2.ReadExReq_mshr_miss_latency::total  10711814000                       # number of ReadExReq MSHR miss cycles
system.l2.ReadExReq_mshr_miss_rate::.cpu.data     0.489877                       # mshr miss rate for ReadExReq accesses
system.l2.ReadExReq_mshr_miss_rate::total     0.489877                       # mshr miss rate for ReadExReq accesses
system.l2.ReadExReq_avg_mshr_miss_latency::.cpu.data 76364.591651                       # average ReadExReq mshr miss latency
system.l2.ReadExReq_avg_mshr_miss_latency::total 76364.591651                       # average ReadExReq mshr miss latency
system.l2.ReadCleanReq_hits::.cpu.inst             78                       # number of ReadCleanReq hits
system.l2.ReadCleanReq_hits::total                 78                       # number of ReadCleanReq hits
system.l2.ReadCleanReq_misses::.cpu.inst          669                       # number of ReadCleanReq misses
system.l2.ReadCleanReq_misses::total              669                       # number of ReadCleanReq misses
system.l2.ReadCleanReq_miss_latency::.cpu.inst     53065500                       # number of ReadCleanReq miss cycles
system.l2.ReadCleanReq_miss_latency::total     53065500                       # number of ReadCleanReq miss cycles
system.l2.ReadCleanReq_accesses::.cpu.inst          747                       # number of ReadCleanReq accesses(hits+misses)
system.l2.ReadCleanReq_accesses::total            747                       # number of ReadCleanReq accesses(hits+misses)
system.l2.ReadCleanReq_miss_rate::.cpu.inst     0.895582                       # miss rate for ReadCleanReq accesses
system.l2.ReadCleanReq_miss_rate::total      0.895582                       # miss rate for ReadCleanReq accesses
system.l2.ReadCleanReq_avg_miss_latency::.cpu.inst 79320.627803                       # average ReadCleanReq miss latency
system.l2.ReadCleanReq_avg_miss_latency::total 79320.627803                       # average ReadCleanReq miss latency
system.l2.ReadCleanReq_mshr_misses::.cpu.inst          669                       # number of ReadCleanReq MSHR misses
system.l2.ReadCleanReq_mshr_misses::total          669                       # number of ReadCleanReq MSHR misses
system.l2.ReadCleanReq_mshr_miss_latency::.cpu.inst     46375500                       # number of ReadCleanReq MSHR miss cycles
system.l2.ReadCleanReq_mshr_miss_latency::total     46375500                       # number of ReadCleanReq MSHR miss cycles
system.l2.ReadCleanReq_mshr_miss_rate::.cpu.inst     0.895582                       # mshr miss rate for ReadCleanReq accesses
system.l2.ReadCleanReq_mshr_miss_rate::total     0.895582                       # mshr miss rate for ReadCleanReq accesses
system.l2.ReadCleanReq_avg_mshr_miss_latency::.cpu.inst 69320.627803                       # average ReadCleanReq mshr miss latency
system.l2.ReadCleanReq_avg_mshr_miss_latency::total 69320.627803                       # average ReadCleanReq mshr miss latency
system.l2.ReadSharedReq_hits::.cpu.data        342683                       # number of ReadSharedReq hits
system.l2.ReadSharedReq_hits::total            342683                       # number of ReadSharedReq hits
system.l2.ReadSharedReq_misses::.cpu.data        82568                       # number of ReadSharedReq misses
system.l2.ReadSharedReq_misses::total           82568                       # number of ReadSharedReq misses
system.l2.ReadSharedReq_miss_latency::.cpu.data   6631509000                       # number of ReadSharedReq miss cycles
system.l2.ReadSharedReq_miss_latency::total   6631509000                       # number of ReadSharedReq miss cycles
system.l2.ReadSharedReq_accesses::.cpu.data       425251                       # number of ReadSharedReq accesses(hits+misses)
system.l2.ReadSharedReq_accesses::total        425251                       # number of ReadSharedReq accesses(hits+misses)
system.l2.ReadSharedReq_miss_rate::.cpu.data     0.194163                       # miss rate for ReadSharedReq accesses
system.l2.ReadSharedReq_miss_rate::total     0.194163                       # miss rate for ReadSharedReq accesses
system.l2.ReadSharedReq_avg_miss_latency::.cpu.data 80315.727643                       # average ReadSharedReq miss latency
system.l2.ReadSharedReq_avg_miss_latency::total 80315.727643                       # average ReadSharedReq miss latency
system.l2.ReadSharedReq_mshr_hits::.cpu.data            3                       # number of ReadSharedReq MSHR hits
system.l2.ReadSharedReq_mshr_hits::total            3                       # number of ReadSharedReq MSHR hits
system.l2.ReadSharedReq_mshr_misses::.cpu.data        82565                       # number of ReadSharedReq MSHR misses
system.l2.ReadSharedReq_mshr_misses::total        82565                       # number of ReadSharedReq MSHR misses
system.l2.ReadSharedReq_mshr_miss_latency::.cpu.data   5805661000                       # number of ReadSharedReq MSHR miss cycles
system.l2.ReadSharedReq_mshr_miss_latency::total   5805661000                       # number of ReadSharedReq MSHR miss cycles
system.l2.ReadSharedReq_mshr_miss_rate::.cpu.data     0.194156                       # mshr miss rate for ReadSharedReq accesses
system.l2.ReadSharedReq_mshr_miss_rate::total     0.194156                       # mshr miss rate for ReadSharedReq accesses
system.l2.ReadSharedReq_avg_mshr_miss_latency::.cpu.data 70316.247805                       # average ReadSharedReq mshr miss latency
system.l2.ReadSharedReq_avg_mshr_miss_latency::total 70316.247805                       # average ReadSharedReq mshr miss latency
system.l2.tags.pwrStateResidencyTicks::UNDEFINED  85332166500                       # Cumulative time (in ticks) in various power states
system.l2.tags.tagsinuse                 31783.641431                       # Cycle average of tags in use
system.l2.tags.total_refs                     1421712                       # Total number of references to valid blocks.
system.l2.tags.sampled_refs                    229226                       # Sample count of references to valid blocks.
system.l2.tags.avg_refs                      6.202228                       # Average number of references to valid blocks.
system.l2.tags.warmup_cycle                     77000                       # Cycle when the warmup percentage was hit.
system.l2.tags.occ_blocks::.writebacks     208.086312                       # Average occupied blocks per requestor
system.l2.tags.occ_blocks::.cpu.inst        89.420578                       # Average occupied blocks per requestor
system.l2.tags.occ_blocks::.cpu.data     31486.134541                       # Average occupied blocks per requestor
system.l2.tags.occ_percent::.writebacks      0.006350                       # Average percentage of cache occupancy
system.l2.tags.occ_percent::.cpu.inst        0.002729                       # Average percentage of cache occupancy
system.l2.tags.occ_percent::.cpu.data        0.960881                       # Average percentage of cache occupancy
system.l2.tags.occ_percent::total            0.969960                       # Average percentage of cache occupancy
system.l2.tags.occ_task_id_blocks::1024         32768                       # Occupied blocks per task id
system.l2.tags.age_task_id_blocks_1024::0           92                       # Occupied blocks per task id
system.l2.tags.age_task_id_blocks_1024::1          168                       # Occupied blocks per task id
system.l2.tags.age_task_id_blocks_1024::2         2067                       # Occupied blocks per task id
system.l2.tags.age_task_id_blocks_1024::3        13321                       # Occupied blocks per task id
system.l2.tags.age_task_id_blocks_1024::4        17120                       # Occupied blocks per task id
system.l2.tags.occ_task_id_percent::1024            1                       # Percentage of cache occupancy per task id
system.l2.tags.tag_accesses                   1652314                       # Number of tag accesses
system.l2.tags.data_accesses                  1652314                       # Number of data accesses
system.cpu_voltage_domain.voltage                   1                       # Voltage in Volts
system.mem_ctrls.pwrStateResidencyTicks::UNDEFINED  85332166500                       # Cumulative time (in ticks) in various power states
system.mem_ctrls.bytes_read::.cpu.inst          42816                       # Number of bytes read from this memory
system.mem_ctrls.bytes_read::.cpu.data       14261504                       # Number of bytes read from this memory
system.mem_ctrls.bytes_read::total           14304320                       # Number of bytes read from this memory
system.mem_ctrls.bytes_inst_read::.cpu.inst        42816                       # Number of instructions bytes read from this memory
system.mem_ctrls.bytes_inst_read::total         42816                       # Number of instructions bytes read from this memory
system.mem_ctrls.bytes_written::.writebacks      8081088                       # Number of bytes written to this memory
system.mem_ctrls.bytes_written::total         8081088                       # Number of bytes written to this memory
system.mem_ctrls.num_reads::.cpu.inst             669                       # Number of read requests responded to by this memory
system.mem_ctrls.num_reads::.cpu.data          222836                       # Number of read requests responded to by this memory
system.mem_ctrls.num_reads::total              223505                       # Number of read requests responded to by this memory
system.mem_ctrls.num_writes::.writebacks       126267                       # Number of write requests responded to by this memory
system.mem_ctrls.num_writes::total             126267                       # Number of write requests responded to by this memory
system.mem_ctrls.bw_read::.cpu.inst            501757                       # Total read bandwidth from this memory (bytes/s)
system.mem_ctrls.bw_read::.cpu.data         167129285                       # Total read bandwidth from this memory (bytes/s)
system.mem_ctrls.bw_read::total             167631042                       # Total read bandwidth from this memory (bytes/s)
system.mem_ctrls.bw_inst_read::.cpu.inst       501757                       # Instruction read bandwidth from this memory (bytes/s)
system.mem_ctrls.bw_inst_read::total           501757                       # Instruction read bandwidth from this memory (bytes/s)
system.mem_ctrls.bw_write::.writebacks       94701545                       # Write bandwidth from this memory (bytes/s)
system.mem_ctrls.bw_write::total             94701545                       # Write bandwidth from this memory (bytes/s)
system.mem_ctrls.bw_total::.writebacks       94701545                       # Total bandwidth to/from this memory (bytes/s)
system.mem_ctrls.bw_total::.cpu.inst           501757                       # Total bandwidth to/from this memory (bytes/s)
system.mem_ctrls.bw_total::.cpu.data        167129285                       # Total bandwidth to/from this memory (bytes/s)
system.mem_ctrls.bw_total::total            262332587                       # Total bandwidth to/from this memory (bytes/s)
system.mem_ctrls.avgPriority_.writebacks::samples    126214.00                       # Average QoS priority value for accepted requests
system.mem_ctrls.avgPriority_.cpu.inst::samples       669.00                       # Average QoS priority value for accepted requests
system.mem_ctrls.avgPriority_.cpu.data::samples    222189.00                       # Average QoS priority value for accepted requests
system.mem_ctrls.priorityMinLatency      0.000000018750                       # per QoS priority minimum request to response latency (s)
system.mem_ctrls.priorityMaxLatency      0.009743042500                       # per QoS priority maximum request to response latency (s)
system.mem_ctrls.numReadWriteTurnArounds         7432                       # Number of turnarounds from READ to WRITE
system.mem_ctrls.numWriteReadTurnArounds         7433                       # Number of turnarounds from WRITE to READ
system.mem_ctrls.numStayReadState              584548                       # Number of times bus staying in READ state
system.mem_ctrls.numStayWriteState             118878                       # Number of times bus staying in WRITE state
system.mem_ctrls.readReqs                      223506                       # Number of read requests accepted
system.mem_ctrls.writeReqs                     126267                       # Number of write requests accepted
system.mem_ctrls.readBursts                    223506                       # Number of DRAM read bursts, including those serviced by the write queue
system.mem_ctrls.writeBursts                   126267                       # Number of DRAM write bursts, including those merged in the write queue
system.mem_ctrls.servicedByWrQ                    648                       # Number of DRAM read bursts serviced by the write queue
system.mem_ctrls.mergedWrBursts                    53                       # Number of DRAM write bursts merged with an existing one
system.mem_ctrls.neitherReadNorWriteReqs            0                       # Number of requests that are neither read nor write
system.mem_ctrls.perBankRdBursts::0             14110                       # Per bank write bursts
system.mem_ctrls.perBankRdBursts::1             14486                       # Per bank write bursts
system.mem_ctrls.perBankRdBursts::2             14035                       # Per bank write bursts
system.mem_ctrls.perBankRdBursts::3             13998                       # Per bank write bursts
system.mem_ctrls.perBankRdBursts::4             13544                       # Per bank write bursts
system.mem_ctrls.perBankRdBursts::5             14251                       # Per bank write bursts
system.mem_ctrls.perBankRdBursts::6             13929                       # Per bank write bursts
system.mem_ctrls.perBankRdBursts::7             14177                       # Per bank write bursts
system.mem_ctrls.perBankRdBursts::8             14315                       # Per bank write bursts
system.mem_ctrls.perBankRdBursts::9             13789                       # Per bank write bursts
system.mem_ctrls.perBankRdBursts::10            13734                       # Per bank write bursts
system.mem_ctrls.perBankRdBursts::11            13456                       # Per bank write bursts
system.mem_ctrls.perBankRdBursts::12            13677                       # Per bank write bursts
system.mem_ctrls.perBankRdBursts::13            13787                       # Per bank write bursts
system.mem_ctrls.perBankRdBursts::14            13766                       # Per bank write bursts
system.mem_ctrls.perBankRdBursts::15            13803                       # Per bank write bursts
system.mem_ctrls.perBankWrBursts::0              7685                       # Per bank write bursts
system.mem_ctrls.perBankWrBursts::1              8599                       # Per bank write bursts
system.mem_ctrls.perBankWrBursts::2              8046                       # Per bank write bursts
system.mem_ctrls.perBankWrBursts::3              8144                       # Per bank write bursts
system.mem_ctrls.perBankWrBursts::4              7754                       # Per bank write bursts
system.mem_ctrls.perBankWrBursts::5              8452                       # Per bank write bursts
system.mem_ctrls.perBankWrBursts::6              8130                       # Per bank write bursts
system.mem_ctrls.perBankWrBursts::7              8133                       # Per bank write bursts
system.mem_ctrls.perBankWrBursts::8              8328                       # Per bank write bursts
system.mem_ctrls.perBankWrBursts::9              7880                       # Per bank write bursts
system.mem_ctrls.perBankWrBursts::10             7633                       # Per bank write bursts
system.mem_ctrls.perBankWrBursts::11             7485                       # Per bank write bursts
system.mem_ctrls.perBankWrBursts::12             7372                       # Per bank write bursts
system.mem_ctrls.perBankWrBursts::13             7483                       # Per bank write bursts
system.mem_ctrls.perBankWrBursts::14             7558                       # Per bank write bursts
system.mem_ctrls.perBankWrBursts::15             7501                       # Per bank write bursts
system.mem_ctrls.avgRdQLen                       1.08                       # Average read queue length when enqueuing
system.mem_ctrls.avgWrQLen                      24.75                       # Average write queue length when enqueuing
system.mem_ctrls.totQLat                   3170439250                       # Total ticks spent queuing
system.mem_ctrls.totBusLat                 1114285000                       # Total ticks spent in databus transfers
system.mem_ctrls.totMemAccLat              7349008000                       # Total ticks spent from burst creation until serviced by the DRAM
system.mem_ctrls.avgQLat                     14226.28                       # Average queueing delay per DRAM burst
system.mem_ctrls.avgBusLat                    4999.98                       # Average bus latency per DRAM burst
system.mem_ctrls.avgMemAccLat                32976.19                       # Average memory access latency per DRAM burst
system.mem_ctrls.numRdRetry                         0                       # Number of times read queue was full causing retry
system.mem_ctrls.numWrRetry                         0                       # Number of times write queue was full causing retry
system.mem_ctrls.readRowHits                   144153                       # Number of row buffer hits during reads
system.mem_ctrls.writeRowHits                   76035                       # Number of row buffer hits during writes
system.mem_ctrls.readRowHitRate                 64.68                       # Row buffer hit rate for reads
system.mem_ctrls.writeRowHitRate                60.24                       # Row buffer hit rate for writes
system.mem_ctrls.readPktSize::0                     0                       # Read request sizes (log2)
system.mem_ctrls.readPktSize::1                     0                       # Read request sizes (log2)
system.mem_ctrls.readPktSize::2                     0                       # Read request sizes (log2)
system.mem_ctrls.readPktSize::3                     0                       # Read request sizes (log2)
system.mem_ctrls.readPktSize::4                     0                       # Read request sizes (log2)
system.mem_ctrls.readPktSize::5                     0                       # Read request sizes (log2)
system.mem_ctrls.readPktSize::6                223506                       # Read request sizes (log2)
system.mem_ctrls.writePktSize::0                    0                       # Write request sizes (log2)
system.mem_ctrls.writePktSize::1                    0                       # Write request sizes (log2)
system.mem_ctrls.writePktSize::2                    0                       # Write request sizes (log2)
system.mem_ctrls.writePktSize::3                    0                       # Write request sizes (log2)
system.mem_ctrls.writePktSize::4                    0                       # Write request sizes (log2)
system.mem_ctrls.writePktSize::5                    0                       # Write request sizes (log2)
system.mem_ctrls.writePktSize::6               126267                       # Write request sizes (log2)
system.mem_ctrls.rdQLenPdf::0                  161105                       # What read queue length does an incoming req see
system.mem_ctrls.rdQLenPdf::1                   58469                       # What read queue length does an incoming req see
system.mem_ctrls.rdQLenPdf::2                    2824                       # What read queue length does an incoming req see
system.mem_ctrls.rdQLenPdf::3                     459                       # What read queue length does an incoming req see
system.mem_ctrls.rdQLenPdf::4                       1                       # What read queue length does an incoming req see
system.mem_ctrls.rdQLenPdf::5                       0                       # What read queue length does an incoming req see
system.mem_ctrls.rdQLenPdf::6                       0                       # What read queue length does an incoming req see
system.mem_ctrls.rdQLenPdf::7                       0                       # What read queue length does an incoming req see
system.mem_ctrls.rdQLenPdf::8                       0                       # What read queue length does an incoming req see
system.mem_ctrls.rdQLenPdf::9                       0                       # What read queue length does an incoming req see
system.mem_ctrls.rdQLenPdf::10                      0                       # What read queue length does an incoming req see
system.mem_ctrls.rdQLenPdf::11                      0                       # What read queue length does an incoming req see
system.mem_ctrls.rdQLenPdf::12                      0                       # What read queue length does an incoming req see
system.mem_ctrls.rdQLenPdf::13                      0                       # What read queue length does an incoming req see
system.mem_ctrls.rdQLenPdf::14                      0                       # What read queue length does an incoming req see
system.mem_ctrls.rdQLenPdf::15                      0                       # What read queue length does an incoming req see
system.mem_ctrls.rdQLenPdf::16                      0                       # What read queue length does an incoming req see
system.mem_ctrls.rdQLenPdf::17                      0                       # What read queue length does an incoming req see
system.mem_ctrls.rdQLenPdf::18                      0                       # What read queue length does an incoming req see
system.mem_ctrls.rdQLenPdf::19                      0                       # What read queue length does an incoming req see
system.mem_ctrls.rdQLenPdf::20                      0                       # What read queue length does an incoming req see
system.mem_ctrls.rdQLenPdf::21                      0                       # What read queue length does an incoming req see
system.mem_ctrls.rdQLenPdf::22                      0                       # What read queue length does an incoming req see
system.mem_ctrls.rdQLenPdf::23                      0                       # What read queue length does an incoming req see
system.mem_ctrls.rdQLenPdf::24                      0                       # What read queue length does an incoming req see
system.mem_ctrls.rdQLenPdf::25                      0                       # What read queue length does an incoming req see
system.mem_ctrls.rdQLenPdf::26                      0                       # What read queue length does an incoming req see
system.mem_ctrls.rdQLenPdf::27                      0                       # What read queue length does an incoming req see
system.mem_ctrls.rdQLenPdf::28                      0                       # What read queue length does an incoming req see
system.mem_ctrls.rdQLenPdf::29                      0                       # What read queue length does an incoming req see
system.mem_ctrls.rdQLenPdf::30                      0                       # What read queue length does an incoming req see
system.mem_ctrls.rdQLenPdf::31                      0                       # What read queue length does an incoming req see
system.mem_ctrls.wrQLenPdf::0                       1                       # What write queue length does an incoming req see
system.mem_ctrls.wrQLenPdf::1                       1                       # What write queue length does an incoming req see
system.mem_ctrls.wrQLenPdf::2                       1                       # What write queue length does an incoming req see
system.mem_ctrls.wrQLenPdf::3                       1                       # What write queue length does an incoming req see
system.mem_ctrls.wrQLenPdf::4                       1                       # What write queue length does an incoming req see
system.mem_ctrls.wrQLenPdf::5                       1                       # What write queue length does an incoming req see
system.mem_ctrls.wrQLenPdf::6                       1                       # What write queue length does an incoming req see
system.mem_ctrls.wrQLenPdf::7                       1                       # What write queue length does an incoming req see
system.mem_ctrls.wrQLenPdf::8                       1                       # What write queue length does an incoming req see
system.mem_ctrls.wrQLenPdf::9                       1                       # What write queue length does an incoming req see
system.mem_ctrls.wrQLenPdf::10                      1                       # What write queue length does an incoming req see
system.mem_ctrls.wrQLenPdf::11                      1                       # What write queue length does an incoming req see
system.mem_ctrls.wrQLenPdf::12                      1                       # What write queue length does an incoming req see
system.mem_ctrls.wrQLenPdf::13                      1                       # What write queue length does an incoming req see
system.mem_ctrls.wrQLenPdf::14                      1                       # What write queue length does an incoming req see
system.mem_ctrls.wrQLenPdf::15                   3419                       # What write queue length does an incoming req see
system.mem_ctrls.wrQLenPdf::16                   3482                       # What write queue length does an incoming req see
system.mem_ctrls.wrQLenPdf::17                   6551                       # What write queue length does an incoming req see
system.mem_ctrls.wrQLenPdf::18                   7507                       # What write queue length does an incoming req see
system.mem_ctrls.wrQLenPdf::19                   7476                       # What write queue length does an incoming req see
system.mem_ctrls.wrQLenPdf::20                   7708                       # What write queue length does an incoming req see
system.mem_ctrls.wrQLenPdf::21                   7503                       # What write queue length does an incoming req see
system.mem_ctrls.wrQLenPdf::22                   7508                       # What write queue length does an incoming req see
system.mem_ctrls.wrQLenPdf::23                   7517                       # What write queue length does an incoming req see
system.mem_ctrls.wrQLenPdf::24                   7525                       # What write queue length does an incoming req see
system.mem_ctrls.wrQLenPdf::25                   7550                       # What write queue length does an incoming req see
system.mem_ctrls.wrQLenPdf::26                   7518                       # What write queue length does an incoming req see
system.mem_ctrls.wrQLenPdf::27                   7492                       # What write queue length does an incoming req see
system.mem_ctrls.wrQLenPdf::28                   7555                       # What write queue length does an incoming req see
system.mem_ctrls.wrQLenPdf::29                   7502                       # What write queue length does an incoming req see
system.mem_ctrls.wrQLenPdf::30                   7452                       # What write queue length does an incoming req see
system.mem_ctrls.wrQLenPdf::31                   7478                       # What write queue length does an incoming req see
system.mem_ctrls.wrQLenPdf::32                   7449                       # What write queue length does an incoming req see
system.mem_ctrls.wrQLenPdf::33                      6                       # What write queue length does an incoming req see
system.mem_ctrls.wrQLenPdf::34                      1                       # What write queue length does an incoming req see
system.mem_ctrls.wrQLenPdf::35                      0                       # What write queue length does an incoming req see
system.mem_ctrls.wrQLenPdf::36                      0                       # What write queue length does an incoming req see
system.mem_ctrls.wrQLenPdf::37                      0                       # What write queue length does an incoming req see
system.mem_ctrls.wrQLenPdf::38                      0                       # What write queue length does an incoming req see
system.mem_ctrls.wrQLenPdf::39                      0                       # What write queue length does an incoming req see
system.mem_ctrls.wrQLenPdf::40                      0                       # What write queue length does an incoming req see
system.mem_ctrls.wrQLenPdf::41                      0                       # What write queue length does an incoming req see
system.mem_ctrls.wrQLenPdf::42                      0                       # What write queue length does an incoming req see
system.mem_ctrls.wrQLenPdf::43                      0                       # What write queue length does an incoming req see
system.mem_ctrls.wrQLenPdf::44                      0                       # What write queue length does an incoming req see
system.mem_ctrls.wrQLenPdf::45                      0                       # What write queue length does an incoming req see
system.mem_ctrls.wrQLenPdf::46                      0                       # What write queue length does an incoming req see
system.mem_ctrls.wrQLenPdf::47                      0                       # What write queue length does an incoming req see
system.mem_ctrls.wrQLenPdf::48                      0                       # What write queue length does an incoming req see
system.mem_ctrls.wrQLenPdf::49                      0                       # What write queue length does an incoming req see
system.mem_ctrls.wrQLenPdf::50                      0                       # What write queue length does an incoming req see
system.mem_ctrls.wrQLenPdf::51                      0                       # What write queue length does an incoming req see
system.mem_ctrls.wrQLenPdf::52                      0                       # What write queue length does an incoming req see
system.mem_ctrls.wrQLenPdf::53                      0                       # What write queue length does an incoming req see
system.mem_ctrls.wrQLenPdf::54                      0                       # What write queue length does an incoming req see
system.mem_ctrls.wrQLenPdf::55                      0                       # What write queue length does an incoming req see
system.mem_ctrls.wrQLenPdf::56                      0                       # What write queue length does an incoming req see
system.mem_ctrls.wrQLenPdf::57                      0                       # What write queue length does an incoming req see
system.mem_ctrls.wrQLenPdf::58                      0                       # What write queue length does an incoming req see
system.mem_ctrls.wrQLenPdf::59                      0                       # What write queue length does an incoming req see
system.mem_ctrls.wrQLenPdf::60                      0                       # What write queue length does an incoming req see
system.mem_ctrls.wrQLenPdf::61                      0                       # What write queue length does an incoming req see
system.mem_ctrls.wrQLenPdf::62                      0                       # What write queue length does an incoming req see
system.mem_ctrls.wrQLenPdf::63                      0                       # What write queue length does an incoming req see
system.mem_ctrls.bytesPerActivate::samples       128841                       # Bytes accessed per row activation
system.mem_ctrls.bytesPerActivate::mean    173.374873                       # Bytes accessed per row activation
system.mem_ctrls.bytesPerActivate::gmean   104.840979                       # Bytes accessed per row activation
system.mem_ctrls.bytesPerActivate::stdev   238.464919                       # Bytes accessed per row activation
system.mem_ctrls.bytesPerActivate::0-127        87830     68.17%     68.17% # Bytes accessed per row activation
system.mem_ctrls.bytesPerActivate::128-255        18603     14.44%     82.61% # Bytes accessed per row activation
system.mem_ctrls.bytesPerActivate::256-383         3354      2.60%     85.21% # Bytes accessed per row activation
system.mem_ctrls.bytesPerActivate::384-511         1585      1.23%     86.44% # Bytes accessed per row activation
system.mem_ctrls.bytesPerActivate::512-639         9912      7.69%     94.13% # Bytes accessed per row activation
system.mem_ctrls.bytesPerActivate::640-767          695      0.54%     94.67% # Bytes accessed per row activation
system.mem_ctrls.bytesPerActivate::768-895          474      0.37%     95.04% # Bytes accessed per row activation
system.mem_ctrls.bytesPerActivate::896-1023          337      0.26%     95.30% # Bytes accessed per row activation
system.mem_ctrls.bytesPerActivate::1024-1151         6051      4.70%    100.00% # Bytes accessed per row activation
system.mem_ctrls.bytesPerActivate::total       128841                       # Bytes accessed per row activation
system.mem_ctrls.rdPerTurnAround::samples         7433                       # Reads before turning the bus around for writes
system.mem_ctrls.rdPerTurnAround::mean      29.982107                       # Reads before turning the bus around for writes
system.mem_ctrls.rdPerTurnAround::gmean     21.192610                       # Reads before turning the bus around for writes
system.mem_ctrls.rdPerTurnAround::stdev     94.037296                       # Reads before turning the bus around for writes
system.mem_ctrls.rdPerTurnAround::0-255          7303     98.25%     98.25% # Reads before turning the bus around for writes
system.mem_ctrls.rdPerTurnAround::256-511           37      0.50%     98.75% # Reads before turning the bus around for writes
system.mem_ctrls.rdPerTurnAround::512-767           89      1.20%     99.95% # Reads before turning the bus around for writes
system.mem_ctrls.rdPerTurnAround::768-1023            2      0.03%     99.97% # Reads before turning the bus around for writes
system.mem_ctrls.rdPerTurnAround::2304-2559            1      0.01%     99.99% # Reads before turning the bus around for writes
[...]
system.cpu.icache.ReadReq_avg_miss_latency::total 74658.634538                       # average ReadReq miss latency
system.cpu.icache.ReadReq_mshr_misses::.cpu.inst          747                       # number of ReadReq MSHR misses
system.cpu.icache.ReadReq_mshr_misses::total          747                       # number of ReadReq MSHR misses
system.cpu.icache.ReadReq_mshr_miss_latency::.cpu.inst     55023000                       # number of ReadReq MSHR miss cycles
system.cpu.icache.ReadReq_mshr_miss_latency::total     55023000                       # number of ReadReq MSHR miss cycles
system.cpu.icache.ReadReq_mshr_miss_rate::.cpu.inst     0.000077                       # mshr miss rate for ReadReq accesses
system.cpu.icache.ReadReq_mshr_miss_rate::total     0.000077                       # mshr miss rate for ReadReq accesses
system.cpu.icache.ReadReq_avg_mshr_miss_latency::.cpu.inst 73658.634538                       # average ReadReq mshr miss latency
system.cpu.icache.ReadReq_avg_mshr_miss_latency::total 73658.634538                       # average ReadReq mshr miss latency
system.cpu.icache.tags.pwrStateResidencyTicks::UNDEFINED  85332166500                       # Cumulative time (in ticks) in various power states
system.cpu.icache.tags.tagsinuse           361.627223                       # Cycle average of tags in use
system.cpu.icache.tags.total_refs             9663458                       # Total number of references to valid blocks.
system.cpu.icache.tags.sampled_refs               747                       # Sample count of references to valid blocks.
system.cpu.icache.tags.avg_refs          12936.356091                       # Average number of references to valid blocks.
system.cpu.icache.tags.warmup_cycle             87500                       # Cycle when the warmup percentage was hit.
system.cpu.icache.tags.occ_blocks::.cpu.inst   361.627223                       # Average occupied blocks per requestor
system.cpu.icache.tags.occ_percent::.cpu.inst     0.706303                       # Average percentage of cache occupancy
system.cpu.icache.tags.occ_percent::total     0.706303                       # Average percentage of cache occupancy
system.cpu.icache.tags.occ_task_id_blocks::1024          445                       # Occupied blocks per task id
system.cpu.icache.tags.age_task_id_blocks_1024::3          106                       # Occupied blocks per task id
system.cpu.icache.tags.age_task_id_blocks_1024::4          339                       # Occupied blocks per task id
system.cpu.icache.tags.occ_task_id_percent::1024     0.869141                       # Percentage of cache occupancy per task id
system.cpu.icache.tags.tag_accesses          19327663                       # Number of tag accesses
system.cpu.icache.tags.data_accesses         19327663                       # Number of data accesses
system.cpu.dtb.walker.pwrStateResidencyTicks::UNDEFINED  85332166500                       # Cumulative time (in ticks) in various power states
system.cpu.dtb.stage2_mmu.stage2_tlb.walker.pwrStateResidencyTicks::UNDEFINED  85332166500                       # Cumulative time (in ticks) in various power states
system.cpu.dcache.pwrStateResidencyTicks::UNDEFINED  85332166500                       # Cumulative time (in ticks) in various power states
system.cpu.dcache.demand_hits::.cpu.data     51307585                       # number of demand (read+write) hits
system.cpu.dcache.demand_hits::total         51307585                       # number of demand (read+write) hits
system.cpu.dcache.overall_hits::.cpu.data     51308090                       # number of overall hits
system.cpu.dcache.overall_hits::total        51308090                       # number of overall hits
system.cpu.dcache.demand_misses::.cpu.data       761870                       # number of demand (read+write) misses
system.cpu.dcache.demand_misses::total         761870                       # number of demand (read+write) misses
system.cpu.dcache.overall_misses::.cpu.data       769781                       # number of overall misses
system.cpu.dcache.overall_misses::total        769781                       # number of overall misses
system.cpu.dcache.demand_miss_latency::.cpu.data  26535933500                       # number of demand (read+write) miss cycles
system.cpu.dcache.demand_miss_latency::total  26535933500                       # number of demand (read+write) miss cycles
system.cpu.dcache.overall_miss_latency::.cpu.data  26535933500                       # number of overall miss cycles
system.cpu.dcache.overall_miss_latency::total  26535933500                       # number of overall miss cycles
system.cpu.dcache.demand_accesses::.cpu.data     52069455                       # number of demand (read+write) accesses
system.cpu.dcache.demand_accesses::total     52069455                       # number of demand (read+write) accesses
system.cpu.dcache.overall_accesses::.cpu.data     52077871                       # number of overall (read+write) accesses
system.cpu.dcache.overall_accesses::total     52077871                       # number of overall (read+write) accesses
system.cpu.dcache.demand_miss_rate::.cpu.data     0.014632                       # miss rate for demand accesses
system.cpu.dcache.demand_miss_rate::total     0.014632                       # miss rate for demand accesses
system.cpu.dcache.overall_miss_rate::.cpu.data     0.014781                       # miss rate for overall accesses
system.cpu.dcache.overall_miss_rate::total     0.014781                       # miss rate for overall accesses
system.cpu.dcache.demand_avg_miss_latency::.cpu.data 34830.001838                       # average overall miss latency
system.cpu.dcache.demand_avg_miss_latency::total 34830.001838                       # average overall miss latency
system.cpu.dcache.overall_avg_miss_latency::.cpu.data 34472.055689                       # average overall miss latency
system.cpu.dcache.overall_avg_miss_latency::total 34472.055689                       # average overall miss latency
system.cpu.dcache.blocked_cycles::no_mshrs       219238                       # number of cycles access was blocked
system.cpu.dcache.blocked_cycles::no_targets            0                       # number of cycles access was blocked
system.cpu.dcache.blocked::no_mshrs              3192                       # number of cycles access was blocked
system.cpu.dcache.blocked::no_targets               0                       # number of cycles access was blocked
system.cpu.dcache.avg_blocked_cycles::no_mshrs    68.683584                       # average number of cycles each access was blocked
system.cpu.dcache.avg_blocked_cycles::no_targets          nan                       # average number of cycles each access was blocked
system.cpu.dcache.writebacks::.writebacks       629552                       # number of writebacks
system.cpu.dcache.writebacks::total            629552                       # number of writebacks
system.cpu.dcache.demand_mshr_hits::.cpu.data        58184                       # number of demand (read+write) MSHR hits
system.cpu.dcache.demand_mshr_hits::total        58184                       # number of demand (read+write) MSHR hits
system.cpu.dcache.overall_mshr_hits::.cpu.data        58184                       # number of overall MSHR hits
system.cpu.dcache.overall_mshr_hits::total        58184                       # number of overall MSHR hits
system.cpu.dcache.demand_mshr_misses::.cpu.data       703686                       # number of demand (read+write) MSHR misses
system.cpu.dcache.demand_mshr_misses::total       703686                       # number of demand (read+write) MSHR misses
system.cpu.dcache.overall_mshr_misses::.cpu.data       711592                       # number of overall MSHR misses
system.cpu.dcache.overall_mshr_misses::total       711592                       # number of overall MSHR misses
system.cpu.dcache.demand_mshr_miss_latency::.cpu.data  24284723000                       # number of demand (read+write) MSHR miss cycles
system.cpu.dcache.demand_mshr_miss_latency::total  24284723000                       # number of demand (read+write) MSHR miss cycles
system.cpu.dcache.overall_mshr_miss_latency::.cpu.data  24950252999                       # number of overall MSHR miss cycles
system.cpu.dcache.overall_mshr_miss_latency::total  24950252999                       # number of overall MSHR miss cycles
system.cpu.dcache.demand_mshr_miss_rate::.cpu.data     0.013514                       # mshr miss rate for demand accesses
system.cpu.dcache.demand_mshr_miss_rate::total     0.013514                       # mshr miss rate for demand accesses
system.cpu.dcache.overall_mshr_miss_rate::.cpu.data     0.013664                       # mshr miss rate for overall accesses
system.cpu.dcache.overall_mshr_miss_rate::total     0.013664                       # mshr miss rate for overall accesses
system.cpu.dcache.demand_avg_mshr_miss_latency::.cpu.data 34510.737744                       # average overall mshr miss latency
system.cpu.dcache.demand_avg_mshr_miss_latency::total 34510.737744                       # average overall mshr miss latency
system.cpu.dcache.overall_avg_mshr_miss_latency::.cpu.data 35062.582209                       # average overall mshr miss latency
system.cpu.dcache.overall_avg_mshr_miss_latency::total 35062.582209                       # average overall mshr miss latency
system.cpu.dcache.replacements                 710567                       # number of replacements
system.cpu.dcache.ReadReq_hits::.cpu.data     40701808                       # number of ReadReq hits
system.cpu.dcache.ReadReq_hits::total        40701808                       # number of ReadReq hits
system.cpu.dcache.ReadReq_misses::.cpu.data       417546                       # number of ReadReq misses
system.cpu.dcache.ReadReq_misses::total        417546                       # number of ReadReq misses
system.cpu.dcache.ReadReq_miss_latency::.cpu.data  10630676500                       # number of ReadReq miss cycles
system.cpu.dcache.ReadReq_miss_latency::total  10630676500                       # number of ReadReq miss cycles
system.cpu.dcache.ReadReq_accesses::.cpu.data     41119354                       # number of ReadReq accesses(hits+misses)
system.cpu.dcache.ReadReq_accesses::total     41119354                       # number of ReadReq accesses(hits+misses)
system.cpu.dcache.ReadReq_miss_rate::.cpu.data     0.010154                       # miss rate for ReadReq accesses
system.cpu.dcache.ReadReq_miss_rate::total     0.010154                       # miss rate for ReadReq accesses
system.cpu.dcache.ReadReq_avg_miss_latency::.cpu.data 25459.893042                       # average ReadReq miss latency
system.cpu.dcache.ReadReq_avg_miss_latency::total 25459.893042                       # average ReadReq miss latency
system.cpu.dcache.ReadReq_mshr_hits::.cpu.data          201                       # number of ReadReq MSHR hits
system.cpu.dcache.ReadReq_mshr_hits::total          201                       # number of ReadReq MSHR hits
system.cpu.dcache.ReadReq_mshr_misses::.cpu.data       417345                       # number of ReadReq MSHR misses
system.cpu.dcache.ReadReq_mshr_misses::total       417345                       # number of ReadReq MSHR misses
system.cpu.dcache.ReadReq_mshr_miss_latency::.cpu.data  10205051500                       # number of ReadReq MSHR miss cycles
system.cpu.dcache.ReadReq_mshr_miss_latency::total  10205051500                       # number of ReadReq MSHR miss cycles
system.cpu.dcache.ReadReq_mshr_miss_rate::.cpu.data     0.010150                       # mshr miss rate for ReadReq accesses
system.cpu.dcache.ReadReq_mshr_miss_rate::total     0.010150                       # mshr miss rate for ReadReq accesses
system.cpu.dcache.ReadReq_avg_mshr_miss_latency::.cpu.data 24452.315231                       # average ReadReq mshr miss latency
system.cpu.dcache.ReadReq_avg_mshr_miss_latency::total 24452.315231                       # average ReadReq mshr miss latency
system.cpu.dcache.WriteReq_hits::.cpu.data     10605777                       # number of WriteReq hits
system.cpu.dcache.WriteReq_hits::total       10605777                       # number of WriteReq hits
system.cpu.dcache.WriteReq_misses::.cpu.data       344324                       # number of WriteReq misses
system.cpu.dcache.WriteReq_misses::total       344324                       # number of WriteReq misses
system.cpu.dcache.WriteReq_miss_latency::.cpu.data  15905257000                       # number of WriteReq miss cycles
system.cpu.dcache.WriteReq_miss_latency::total  15905257000                       # number of WriteReq miss cycles
system.cpu.dcache.WriteReq_accesses::.cpu.data     10950101                       # number of WriteReq accesses(hits+misses)
system.cpu.dcache.WriteReq_accesses::total     10950101                       # number of WriteReq accesses(hits+misses)
system.cpu.dcache.WriteReq_miss_rate::.cpu.data     0.031445                       # miss rate for WriteReq accesses
system.cpu.dcache.WriteReq_miss_rate::total     0.031445                       # miss rate for WriteReq accesses
system.cpu.dcache.WriteReq_avg_miss_latency::.cpu.data 46192.705127                       # average WriteReq miss latency
system.cpu.dcache.WriteReq_avg_miss_latency::total 46192.705127                       # average WriteReq miss latency
system.cpu.dcache.WriteReq_mshr_hits::.cpu.data        57983                       # number of WriteReq MSHR hits
system.cpu.dcache.WriteReq_mshr_hits::total        57983                       # number of WriteReq MSHR hits
system.cpu.dcache.WriteReq_mshr_misses::.cpu.data       286341                       # number of WriteReq MSHR misses
system.cpu.dcache.WriteReq_mshr_misses::total       286341                       # number of WriteReq MSHR misses
system.cpu.dcache.WriteReq_mshr_miss_latency::.cpu.data  14079671500                       # number of WriteReq MSHR miss cycles
system.cpu.dcache.WriteReq_mshr_miss_latency::total  14079671500                       # number of WriteReq MSHR miss cycles
system.cpu.dcache.WriteReq_mshr_miss_rate::.cpu.data     0.026150                       # mshr miss rate for WriteReq accesses
system.cpu.dcache.WriteReq_mshr_miss_rate::total     0.026150                       # mshr miss rate for WriteReq accesses
system.cpu.dcache.WriteReq_avg_mshr_miss_latency::.cpu.data 49170.993675                       # average WriteReq mshr miss latency
system.cpu.dcache.WriteReq_avg_mshr_miss_latency::total 49170.993675                       # average WriteReq mshr miss latency
system.cpu.dcache.SoftPFReq_hits::.cpu.data          505                       # number of SoftPFReq hits
system.cpu.dcache.SoftPFReq_hits::total           505                       # number of SoftPFReq hits
system.cpu.dcache.SoftPFReq_misses::.cpu.data         7911                       # number of SoftPFReq misses
system.cpu.dcache.SoftPFReq_misses::total         7911                       # number of SoftPFReq misses
system.cpu.dcache.SoftPFReq_accesses::.cpu.data         8416                       # number of SoftPFReq accesses(hits+misses)
system.cpu.dcache.SoftPFReq_accesses::total         8416                       # number of SoftPFReq accesses(hits+misses)
system.cpu.dcache.SoftPFReq_miss_rate::.cpu.data     0.939995                       # miss rate for SoftPFReq accesses
system.cpu.dcache.SoftPFReq_miss_rate::total     0.939995                       # miss rate for SoftPFReq accesses
system.cpu.dcache.SoftPFReq_mshr_misses::.cpu.data         7906                       # number of SoftPFReq MSHR misses
system.cpu.dcache.SoftPFReq_mshr_misses::total         7906                       # number of SoftPFReq MSHR misses
system.cpu.dcache.SoftPFReq_mshr_miss_latency::.cpu.data    665529999                       # number of SoftPFReq MSHR miss cycles
system.cpu.dcache.SoftPFReq_mshr_miss_latency::total    665529999                       # number of SoftPFReq MSHR miss cycles
system.cpu.dcache.SoftPFReq_mshr_miss_rate::.cpu.data     0.939401                       # mshr miss rate for SoftPFReq accesses
system.cpu.dcache.SoftPFReq_mshr_miss_rate::total     0.939401                       # mshr miss rate for SoftPFReq accesses
system.cpu.dcache.SoftPFReq_avg_mshr_miss_latency::.cpu.data 84180.369213                       # average SoftPFReq mshr miss latency
system.cpu.dcache.SoftPFReq_avg_mshr_miss_latency::total 84180.369213                       # average SoftPFReq mshr miss latency
system.cpu.dcache.LoadLockedReq_hits::.cpu.data           38                       # number of LoadLockedReq hits
system.cpu.dcache.LoadLockedReq_hits::total           38                       # number of LoadLockedReq hits
system.cpu.dcache.LoadLockedReq_accesses::.cpu.data           38                       # number of LoadLockedReq accesses(hits+misses)
system.cpu.dcache.LoadLockedReq_accesses::total           38                       # number of LoadLockedReq accesses(hits+misses)
system.cpu.dcache.StoreCondReq_hits::.cpu.data           38                       # number of StoreCondReq hits
system.cpu.dcache.StoreCondReq_hits::total           38                       # number of StoreCondReq hits
system.cpu.dcache.StoreCondReq_accesses::.cpu.data           38                       # number of StoreCondReq accesses(hits+misses)
system.cpu.dcache.StoreCondReq_accesses::total           38                       # number of StoreCondReq accesses(hits+misses)
system.cpu.dcache.tags.pwrStateResidencyTicks::UNDEFINED  85332166500                       # Cumulative time (in ticks) in various power states
system.cpu.dcache.tags.tagsinuse          1008.420862                       # Cycle average of tags in use
system.cpu.dcache.tags.total_refs            52019757                       # Total number of references to valid blocks.
system.cpu.dcache.tags.sampled_refs            711591                       # Sample count of references to valid blocks.
system.cpu.dcache.tags.avg_refs             73.103450                       # Average number of references to valid blocks.
system.cpu.dcache.tags.warmup_cycle            176500                       # Cycle when the warmup percentage was hit.
system.cpu.dcache.tags.occ_blocks::.cpu.data  1008.420862                       # Average occupied blocks per requestor
system.cpu.dcache.tags.occ_percent::.cpu.data     0.984786                       # Average percentage of cache occupancy
system.cpu.dcache.tags.occ_percent::total     0.984786                       # Average percentage of cache occupancy
system.cpu.dcache.tags.occ_task_id_blocks::1024         1024                       # Occupied blocks per task id
system.cpu.dcache.tags.age_task_id_blocks_1024::0          235                       # Occupied blocks per task id
system.cpu.dcache.tags.age_task_id_blocks_1024::1          316                       # Occupied blocks per task id
system.cpu.dcache.tags.age_task_id_blocks_1024::2          471                       # Occupied blocks per task id
system.cpu.dcache.tags.age_task_id_blocks_1024::3            2                       # Occupied blocks per task id
system.cpu.dcache.tags.occ_task_id_percent::1024            1                       # Percentage of cache occupancy per task id
system.cpu.dcache.tags.tag_accesses         104867485                       # Number of tag accesses
system.cpu.dcache.tags.data_accesses        104867485                       # Number of data accesses
system.cpu.itb.walker.pwrStateResidencyTicks::UNDEFINED  85332166500                       # Cumulative time (in ticks) in various power states
system.cpu.itb.stage2_mmu.stage2_tlb.walker.pwrStateResidencyTicks::UNDEFINED  85332166500                       # Cumulative time (in ticks) in various power states

---------- End Simulation Statistics   ----------
