
---------- Begin Simulation Statistics ----------
final_tick                                63270398500                       # Number of ticks from beginning of simulation (restored from checkpoints and never reset)
host_inst_rate                                 360719                       # Simulator instruction rate (inst/s)
host_mem_usage                                 691016                       # Number of bytes of host memory used
host_op_rate                                   394741                       # Simulator op (including micro ops) rate (op/s)
host_seconds                                   277.22                       # Real time elapsed on the host
host_tick_rate                              228228031                       # Simulator tick rate (ticks/s)
sim_freq                                 1000000000000                       # Frequency of simulated ticks
sim_insts                                   100000001                       # Number of instructions simulated
sim_ops                                     109431937                       # Number of ops (including micro ops) simulated
sim_seconds                                  0.063270                       # Number of seconds simulated
sim_ticks                                 63270398500                       # Number of ticks simulated
system.cpu.branchPred.BTBCorrect                    0                       # Number of correct BTB predictions (this stat may not work properly.
system.cpu.branchPred.BTBHitPct             88.126458                       # BTB Hit Percentage
system.cpu.branchPred.BTBHits                 8691204                       # Number of BTB hits
system.cpu.branchPred.BTBLookups              9862196                       # Number of BTB lookups
system.cpu.branchPred.RASInCorrect                345                       # Number of incorrect RAS predictions.
system.cpu.branchPred.condIncorrect            142506                       # Number of conditional branches incorrect
system.cpu.branchPred.condPredicted          16295713                       # Number of conditional branches predicted
system.cpu.branchPred.indirectHits             300024                       # Number of indirect target hits.
system.cpu.branchPred.indirectLookups          434095                       # Number of indirect predictor lookups.
system.cpu.branchPred.indirectMisses           134071                       # Number of indirect misses.
system.cpu.branchPred.lookups                20358085                       # Number of BP lookups
system.cpu.branchPred.usedRAS                 1050657                       # Number of times the RAS was used to get a target.
system.cpu.branchPredindirectMispredicted         1040                       # Number of mispredicted indirect branches.
system.cpu.committedInsts                   100000001                       # Number of instructions committed
system.cpu.committedOps                     109431937                       # Number of ops (including micro ops) committed
system.cpu.cpi                               1.265408                       # CPI: cycles per instruction
system.cpu.discardedOps                        734139                       # Number of ops (including micro ops) which were discarded before commit
system.cpu.dtb.accesses                             0                       # DTB accesses
system.cpu.dtb.align_faults                         0                       # Number of TLB faults due to alignment restrictions
system.cpu.dtb.domain_faults                        0                       # Number of TLB faults due to domain restrictions
system.cpu.dtb.flush_entries                        0                       # Number of entries that have been flushed from TLB
system.cpu.dtb.flush_tlb                            0                       # Number of times complete TLB was flushed
system.cpu.dtb.flush_tlb_asid                       0                       # Number of times TLB was flushed by ASID
system.cpu.dtb.flush_tlb_mva                        0                       # Number of times TLB was flushed by MVA
system.cpu.dtb.flush_tlb_mva_asid                   0                       # Number of times TLB was flushed by MVA & ASID
system.cpu.dtb.hits                                 0                       # DTB hits
system.cpu.dtb.inst_accesses                        0                       # ITB inst accesses
system.cpu.dtb.inst_hits                            0                       # ITB inst hits
system.cpu.dtb.inst_misses                          0                       # ITB inst misses
system.cpu.dtb.misses                               0                       # DTB misses
system.cpu.dtb.perms_faults                         0                       # Number of TLB faults due to permissions restrictions
system.cpu.dtb.prefetch_faults                      0                       # Number of TLB faults due to prefetch
system.cpu.dtb.read_accesses                        0                       # DTB read accesses
system.cpu.dtb.read_hits                            0                       # DTB read hits
system.cpu.dtb.read_misses                          0                       # DTB read misses
system.cpu.dtb.stage2_mmu.stage2_tlb.accesses            0                       # DTB accesses
system.cpu.dtb.stage2_mmu.stage2_tlb.align_faults            0                       # Number of TLB faults due to alignment restrictions
system.cpu.dtb.stage2_mmu.stage2_tlb.domain_faults            0                       # Number of TLB faults due to domain restrictions
system.cpu.dtb.stage2_mmu.stage2_tlb.flush_entries            0                       # Number of entries that have been flushed from TLB
system.cpu.dtb.stage2_mmu.stage2_tlb.flush_tlb            0                       # Number of times complete TLB was flushed
system.cpu.dtb.stage2_mmu.stage2_tlb.flush_tlb_asid            0                       # Number of times TLB was flushed by ASID
system.cpu.dtb.stage2_mmu.stage2_tlb.flush_tlb_mva            0                       # Number of times TLB was flushed by MVA
system.cpu.dtb.stage2_mmu.stage2_tlb.flush_tlb_mva_asid            0                       # Number of times TLB was flushed by MVA & ASID
system.cpu.dtb.stage2_mmu.stage2_tlb.hits            0                       # DTB hits
system.cpu.dtb.stage2_mmu.stage2_tlb.inst_accesses            0                       # ITB inst accesses
system.cpu.dtb.stage2_mmu.stage2_tlb.inst_hits            0                       # ITB inst hits
system.cpu.dtb.stage2_mmu.stage2_tlb.inst_misses            0                       # ITB inst misses
system.cpu.dtb.stage2_mmu.stage2_tlb.misses            0                       # DTB misses
system.cpu.dtb.stage2_mmu.stage2_tlb.perms_faults            0                       # Number of TLB faults due to permissions restrictions
system.cpu.dtb.stage2_mmu.stage2_tlb.prefetch_faults            0                       # Number of TLB faults due to prefetch
system.cpu.dtb.stage2_mmu.stage2_tlb.read_accesses            0                       # DTB read accesses
system.cpu.dtb.stage2_mmu.stage2_tlb.read_hits            0                       # DTB read hits
system.cpu.dtb.stage2_mmu.stage2_tlb.read_misses            0                       # DTB read misses
system.cpu.dtb.stage2_mmu.stage2_tlb.walker.walkRequestOrigin_Requested::Data            0                       # Table walker requests started/completed, data/inst
system.cpu.dtb.stage2_mmu.stage2_tlb.walker.walkRequestOrigin_Requested::Inst            0                       # Table walker requests started/completed, data/inst
system.cpu.dtb.stage2_mmu.stage2_tlb.walker.walkRequestOrigin_Requested::total            0                       # Table walker requests started/completed, data/inst
system.cpu.dtb.stage2_mmu.stage2_tlb.walker.walkRequestOrigin_Completed::Data            0                       # Table walker requests started/completed, data/inst
system.cpu.dtb.stage2_mmu.stage2_tlb.walker.walkRequestOrigin_Completed::Inst            0                       # Table walker requests started/completed, data/inst
system.cpu.dtb.stage2_mmu.stage2_tlb.walker.walkRequestOrigin_Completed::total            0                       # Table walker requests started/completed, data/inst
system.cpu.dtb.stage2_mmu.stage2_tlb.walker.walkRequestOrigin::total            0                       # Table walker requests started/completed, data/inst
system.cpu.dtb.stage2_mmu.stage2_tlb.walker.walks            0                       # Table walker walks requested
system.cpu.dtb.stage2_mmu.stage2_tlb.write_accesses            0                       # DTB write accesses
system.cpu.dtb.stage2_mmu.stage2_tlb.write_hits            0                       # DTB write hits
system.cpu.dtb.stage2_mmu.stage2_tlb.write_misses            0                       # DTB write misses
system.cpu.dtb.walker.walkRequestOrigin_Requested::Data            0                       # Table walker requests started/completed, data/inst
system.cpu.dtb.walker.walkRequestOrigin_Requested::Inst            0                       # Table walker requests started/completed, data/inst
system.cpu.dtb.walker.walkRequestOrigin_Requested::total            0                       # Table walker requests started/completed, data/inst
system.cpu.dtb.walker.walkRequestOrigin_Completed::Data            0                       # Table walker requests started/completed, data/inst
system.cpu.dtb.walker.walkRequestOrigin_Completed::Inst            0                       # Table walker requests started/completed, data/inst
system.cpu.dtb.walker.walkRequestOrigin_Completed::total            0                       # Table walker requests started/completed, data/inst
system.cpu.dtb.walker.walkRequestOrigin::total            0                       # Table walker requests started/completed, data/inst
system.cpu.dtb.walker.walks                         0                       # Table walker walks requested
system.cpu.dtb.write_accesses                       0                       # DTB write accesses
system.cpu.dtb.write_hits                           0                       # DTB write hits
system.cpu.dtb.write_misses                         0                       # DTB write misses
system.cpu.fetch2.amo_instructions                  0                       # Number of memory atomic instructions successfully decoded
system.cpu.fetch2.fp_instructions                   0                       # Number of floating point instructions successfully decoded
system.cpu.fetch2.int_instructions           48969457                       # Number of integer instructions successfully decoded
system.cpu.fetch2.load_instructions          17052889                       # Number of memory load instructions successfully decoded
system.cpu.fetch2.store_instructions          9849944                       # Number of memory store instructions successfully decoded
system.cpu.fetch2.vec_instructions                  0                       # Number of SIMD instructions successfully decoded
system.cpu.idleCycles                        11082118                       # Total number of cycles that the object has spent stopped
system.cpu.ipc                               0.790259                       # IPC: instructions per cycle
system.cpu.itb.accesses                             0                       # DTB accesses
system.cpu.itb.align_faults                         0                       # Number of TLB faults due to alignment restrictions
system.cpu.itb.domain_faults                        0                       # Number of TLB faults due to domain restrictions
system.cpu.itb.flush_entries                        0                       # Number of entries that have been flushed from TLB
system.cpu.itb.flush_tlb                            0                       # Number of times complete TLB was flushed
system.cpu.itb.flush_tlb_asid                       0                       # Number of times TLB was flushed by ASID
system.cpu.itb.flush_tlb_mva                        0                       # Number of times TLB was flushed by MVA
system.cpu.itb.flush_tlb_mva_asid                   0                       # Number of times TLB was flushed by MVA & ASID
system.cpu.itb.hits                                 0                       # DTB hits
system.cpu.itb.inst_accesses                        0                       # ITB inst accesses
system.cpu.itb.inst_hits                            0                       # ITB inst hits
system.cpu.itb.inst_misses                          0                       # ITB inst misses
system.cpu.itb.misses                               0                       # DTB misses
system.cpu.itb.perms_faults                         0                       # Number of TLB faults due to permissions restrictions
system.cpu.itb.prefetch_faults                      0                       # Number of TLB faults due to prefetch
system.cpu.itb.read_accesses                        0                       # DTB read accesses
system.cpu.itb.read_hits                            0                       # DTB read hits
system.cpu.itb.read_misses                          0                       # DTB read misses
system.cpu.itb.stage2_mmu.stage2_tlb.accesses            0                       # DTB accesses
system.cpu.itb.stage2_mmu.stage2_tlb.align_faults            0                       # Number of TLB faults due to alignment restrictions
system.cpu.itb.stage2_mmu.stage2_tlb.domain_faults            0                       # Number of TLB faults due to domain restrictions
system.cpu.itb.stage2_mmu.stage2_tlb.flush_entries            0                       # Number of entries that have been flushed from TLB
system.cpu.itb.stage2_mmu.stage2_tlb.flush_tlb            0                       # Number of times complete TLB was flushed
system.cpu.itb.stage2_mmu.stage2_tlb.flush_tlb_asid            0                       # Number of times TLB was flushed by ASID
system.cpu.itb.stage2_mmu.stage2_tlb.flush_tlb_mva            0                       # Number of times TLB was flushed by MVA
system.cpu.itb.stage2_mmu.stage2_tlb.flush_tlb_mva_asid            0                       # Number of times TLB was flushed by MVA & ASID
system.cpu.itb.stage2_mmu.stage2_tlb.hits            0                       # DTB hits
system.cpu.itb.stage2_mmu.stage2_tlb.inst_accesses            0                       # ITB inst accesses
system.cpu.itb.stage2_mmu.stage2_tlb.inst_hits            0                       # ITB inst hits
system.cpu.itb.stage2_mmu.stage2_tlb.inst_misses            0                       # ITB inst misses
system.cpu.itb.stage2_mmu.stage2_tlb.misses            0                       # DTB misses
system.cpu.itb.stage2_mmu.stage2_tlb.perms_faults            0                       # Number of TLB faults due to permissions restrictions
system.cpu.itb.stage2_mmu.stage2_tlb.prefetch_faults            0                       # Number of TLB faults due to prefetch
system.cpu.itb.stage2_mmu.stage2_tlb.read_accesses            0                       # DTB read accesses
system.cpu.itb.stage2_mmu.stage2_tlb.read_hits            0                       # DTB read hits
system.cpu.itb.stage2_mmu.stage2_tlb.read_misses            0                       # DTB read misses
system.cpu.itb.stage2_mmu.stage2_tlb.walker.walkRequestOrigin_Requested::Data            0                       # Table walker requests started/completed, data/inst
system.cpu.itb.stage2_mmu.stage2_tlb.walker.walkRequestOrigin_Requested::Inst            0                       # Table walker requests started/completed, data/inst
system.cpu.itb.stage2_mmu.stage2_tlb.walker.walkRequestOrigin_Requested::total            0                       # Table walker requests started/completed, data/inst
system.cpu.itb.stage2_mmu.stage2_tlb.walker.walkRequestOrigin_Completed::Data            0                       # Table walker requests started/completed, data/inst
system.cpu.itb.stage2_mmu.stage2_tlb.walker.walkRequestOrigin_Completed::Inst            0                       # Table walker requests started/completed, data/inst
system.cpu.itb.stage2_mmu.stage2_tlb.walker.walkRequestOrigin_Completed::total            0                       # Table walker requests started/completed, data/inst
system.cpu.itb.stage2_mmu.stage2_tlb.walker.walkRequestOrigin::total            0                       # Table walker requests started/completed, data/inst
system.cpu.itb.stage2_mmu.stage2_tlb.walker.walks            0                       # Table walker walks requested
system.cpu.itb.stage2_mmu.stage2_tlb.write_accesses            0                       # DTB write accesses
system.cpu.itb.stage2_mmu.stage2_tlb.write_hits            0                       # DTB write hits
system.cpu.itb.stage2_mmu.stage2_tlb.write_misses            0                       # DTB write misses
system.cpu.itb.walker.walkRequestOrigin_Requested::Data            0                       # Table walker requests started/completed, data/inst
system.cpu.itb.walker.walkRequestOrigin_Requested::Inst            0                       # Table walker requests started/completed, data/inst
system.cpu.itb.walker.walkRequestOrigin_Requested::total            0                       # Table walker requests started/completed, data/inst
system.cpu.itb.walker.walkRequestOrigin_Completed::Data            0                       # Table walker requests started/completed, data/inst
system.cpu.itb.walker.walkRequestOrigin_Completed::Inst            0                       # Table walker requests started/completed, data/inst
system.cpu.itb.walker.walkRequestOrigin_Completed::total            0                       # Table walker requests started/completed, data/inst
system.cpu.itb.walker.walkRequestOrigin::total            0                       # Table walker requests started/completed, data/inst
system.cpu.itb.walker.walks                         0                       # Table walker walks requested
system.cpu.itb.write_accesses                       0                       # DTB write accesses
system.cpu.itb.write_hits                           0                       # DTB write hits
system.cpu.itb.write_misses                         0                       # DTB write misses
system.cpu.numCycles                        126540797                       # number of cpu cycles simulated
system.cpu.numFetchSuspends                         0                       # Number of times Execute suspended instruction fetching
system.cpu.numWorkItemsCompleted                    0                       # number of work items this cpu completed
system.cpu.numWorkItemsStarted                      0                       # number of work items this cpu started
system.cpu.op_class_0::No_OpClass                   0      0.00%      0.00% # Class of committed instruction
system.cpu.op_class_0::IntAlu                72955303     66.67%     66.67% # Class of committed instruction
system.cpu.op_class_0::IntMult                 568365      0.52%     67.19% # Class of committed instruction
system.cpu.op_class_0::IntDiv                       0      0.00%     67.19% # Class of committed instruction
system.cpu.op_class_0::FloatAdd                     0      0.00%     67.19% # Class of committed instruction
system.cpu.op_class_0::FloatCmp                     0      0.00%     67.19% # Class of committed instruction
system.cpu.op_class_0::FloatCvt                     0      0.00%     67.19% # Class of committed instruction
system.cpu.op_class_0::FloatMult                    0      0.00%     67.19% # Class of committed instruction
system.cpu.op_class_0::FloatMultAcc                 0      0.00%     67.19% # Class of committed instruction
system.cpu.op_class_0::FloatDiv                     0      0.00%     67.19% # Class of committed instruction
system.cpu.op_class_0::FloatMisc                    0      0.00%     67.19% # Class of committed instruction
system.cpu.op_class_0::FloatSqrt                    0      0.00%     67.19% # Class of committed instruction
system.cpu.op_class_0::SimdAdd                 241252      0.22%     67.41% # Class of committed instruction
system.cpu.op_class_0::SimdAddAcc                   0      0.00%     67.41% # Class of committed instruction
system.cpu.op_class_0::SimdAlu                 154720      0.14%     67.55% # Class of committed instruction
system.cpu.op_class_0::SimdCmp                 120626      0.11%     67.66% # Class of committed instruction
system.cpu.op_class_0::SimdCvt                      0      0.00%     67.66% # Class of committed instruction
system.cpu.op_class_0::SimdMisc                 44544      0.04%     67.70% # Class of committed instruction
system.cpu.op_class_0::SimdMult                     0      0.00%     67.70% # Class of committed instruction
system.cpu.op_class_0::SimdMultAcc                  0      0.00%     67.70% # Class of committed instruction
system.cpu.op_class_0::SimdShift                    0      0.00%     67.70% # Class of committed instruction
system.cpu.op_class_0::SimdShiftAcc                 0      0.00%     67.70% # Class of committed instruction
system.cpu.op_class_0::SimdDiv                      0      0.00%     67.70% # Class of committed instruction
system.cpu.op_class_0::SimdSqrt                     0      0.00%     67.70% # Class of committed instruction
system.cpu.op_class_0::SimdFloatAdd                 0      0.00%     67.70% # Class of committed instruction
system.cpu.op_class_0::SimdFloatAlu                 0      0.00%     67.70% # Class of committed instruction
system.cpu.op_class_0::SimdFloatCmp                 0      0.00%     67.70% # Class of committed instruction
system.cpu.op_class_0::SimdFloatCvt                 0      0.00%     67.70% # Class of committed instruction
system.cpu.op_class_0::SimdFloatDiv                 0      0.00%     67.70% # Class of committed instruction
system.cpu.op_class_0::SimdFloatMisc           166465      0.15%     67.85% # Class of committed instruction
system.cpu.op_class_0::SimdFloatMult                0      0.00%     67.85% # Class of committed instruction
system.cpu.op_class_0::SimdFloatMultAcc             0      0.00%     67.85% # Class of committed instruction
system.cpu.op_class_0::SimdFloatSqrt                0      0.00%     67.85% # Class of committed instruction
system.cpu.op_class_0::SimdReduceAdd                0      0.00%     67.85% # Class of committed instruction
system.cpu.op_class_0::SimdReduceAlu                0      0.00%     67.85% # Class of committed instruction
system.cpu.op_class_0::SimdReduceCmp                0      0.00%     67.85% # Class of committed instruction
system.cpu.op_class_0::SimdFloatReduceAdd            0      0.00%     67.85% # Class of committed instruction
system.cpu.op_class_0::SimdFloatReduceCmp            0      0.00%     67.85% # Class of committed instruction
system.cpu.op_class_0::SimdAes                      0      0.00%     67.85% # Class of committed instruction
system.cpu.op_class_0::SimdAesMix                   0      0.00%     67.85% # Class of committed instruction
system.cpu.op_class_0::SimdSha1Hash                 0      0.00%     67.85% # Class of committed instruction
system.cpu.op_class_0::SimdSha1Hash2                0      0.00%     67.85% # Class of committed instruction
system.cpu.op_class_0::SimdSha256Hash               0      0.00%     67.85% # Class of committed instruction
system.cpu.op_class_0::SimdSha256Hash2              0      0.00%     67.85% # Class of committed instruction
system.cpu.op_class_0::SimdShaSigma2                0      0.00%     67.85% # Class of committed instruction
system.cpu.op_class_0::SimdShaSigma3                0      0.00%     67.85% # Class of committed instruction
system.cpu.op_class_0::SimdPredAlu                  0      0.00%     67.85% # Class of committed instruction
system.cpu.op_class_0::MemRead               20646465     18.87%     86.72% # Class of committed instruction
system.cpu.op_class_0::MemWrite              14534197     13.28%    100.00% # Class of committed instruction
system.cpu.op_class_0::FloatMemRead                 0      0.00%    100.00% # Class of committed instruction
system.cpu.op_class_0::FloatMemWrite                0      0.00%    100.00% # Class of committed instruction
system.cpu.op_class_0::IprAccess                    0      0.00%    100.00% # Class of committed instruction
system.cpu.op_class_0::InstPrefetch                 0      0.00%    100.00% # Class of committed instruction
system.cpu.op_class_0::total                109431937                       # Class of committed instruction
system.cpu.tickCycles                       115458679                       # Number of cycles that the object actually ticked
system.cpu.workload.numSyscalls                    86                       # Number of system calls
system.membus.snoop_filter.hit_multi_requests            0                       # Number of requests hitting in the snoop filter with multiple (>1) holders of the requested data.
system.membus.snoop_filter.hit_multi_snoops            0                       # Number of snoops hitting in the snoop filter with multiple (>1) holders of the requested data.
system.membus.snoop_filter.hit_single_requests        48784                       # Number of requests hitting in the snoop filter with a single holder of the requested data.
system.membus.snoop_filter.hit_single_snoops            0                       # Number of snoops hitting in the snoop filter with a single holder of the requested data.
system.membus.snoop_filter.tot_requests        131042                       # Total number of requests made to the snoop filter.
system.membus.snoop_filter.tot_snoops               0                       # Total number of snoops made to the snoop filter.
system.tol2bus.snoop_filter.hit_multi_requests           21                       # Number of requests hitting in the snoop filter with multiple (>1) holders of the requested data.
system.tol2bus.snoop_filter.hit_multi_snoops            5                       # Number of snoops hitting in the snoop filter with multiple (>1) holders of the requested data.
system.tol2bus.snoop_filter.hit_single_requests       494221                       # Number of requests hitting in the snoop filter with a single holder of the requested data.
system.tol2bus.snoop_filter.hit_single_snoops          747                       # Number of snoops hitting in the snoop filter with a single holder of the requested data.
system.tol2bus.snoop_filter.tot_requests       991163                       # Total number of requests made to the snoop filter.
system.tol2bus.snoop_filter.tot_snoops            752                       # Total number of snoops made to the snoop filter.
system.membus.pwrStateResidencyTicks::UNDEFINED  63270398500                       # Cumulative time (in ticks) in various power states
system.membus.trans_dist::ReadResp              10647                       # Transaction distribution
system.membus.trans_dist::WritebackDirty        48533                       # Transaction distribution
system.membus.trans_dist::CleanEvict              250                       # Transaction distribution
system.membus.trans_dist::ReadExReq             71612                       # Transaction distribution
system.membus.trans_dist::ReadExResp            71612                       # Transaction distribution
system.membus.trans_dist::ReadSharedReq         10647                       # Transaction distribution
system.membus.pkt_count_system.l2.mem_side::system.mem_ctrls.port       213301                       # Packet count per connected master and slave (bytes)
system.membus.pkt_count::total                 213301                       # Packet count per connected master and slave (bytes)
system.membus.pkt_size_system.l2.mem_side::system.mem_ctrls.port      4185344                       # Cumulative packet size per connected master and slave (bytes)
system.membus.pkt_size::total                 4185344                       # Cumulative packet size per connected master and slave (bytes)
system.membus.snoops                                0                       # Total snoops (count)
system.membus.snoopTraffic                          0                       # Total snoop traffic (bytes)
system.membus.snoop_fanout::samples             82259                       # Request fanout histogram
system.membus.snoop_fanout::mean                    0                       # Request fanout histogram
system.membus.snoop_fanout::stdev                   0                       # Request fanout histogram
system.membus.snoop_fanout::underflows              0      0.00%      0.00% # Request fanout histogram
system.membus.snoop_fanout::0                   82259    100.00%    100.00% # Request fanout histogram
system.membus.snoop_fanout::1                       0      0.00%    100.00% # Request fanout histogram
system.membus.snoop_fanout::overflows               0      0.00%    100.00% # Request fanout histogram
system.membus.snoop_fanout::min_value               0                       # Request fanout histogram
system.membus.snoop_fanout::max_value               0                       # Request fanout histogram
system.membus.snoop_fanout::total               82259                       # Request fanout histogram
system.membus.respLayer1.occupancy          273942250                       # Layer occupancy (ticks)
system.membus.respLayer1.utilization              0.4                       # Layer utilization (%)
system.membus.reqLayer0.occupancy           251050500                       # Layer occupancy (ticks)
system.membus.reqLayer0.utilization               0.4                       # Layer utilization (%)
system.tol2bus.pwrStateResidencyTicks::UNDEFINED  63270398500                       # Cumulative time (in ticks) in various power states
system.tol2bus.trans_dist::ReadResp            425281                       # Transaction distribution
system.tol2bus.trans_dist::WritebackDirty       136046                       # Transaction distribution
system.tol2bus.trans_dist::WritebackClean       402069                       # Transaction distribution
system.tol2bus.trans_dist::CleanEvict            5605                       # Transaction distribution
system.tol2bus.trans_dist::ReadExReq            71664                       # Transaction distribution
system.tol2bus.trans_dist::ReadExResp           71664                       # Transaction distribution
system.tol2bus.trans_dist::ReadCleanReq        402750                       # Transaction distribution
system.tol2bus.trans_dist::ReadSharedReq        22532                       # Transaction distribution
system.tol2bus.pkt_count_system.cpu.icache.mem_side::system.l2.cpu_side      1207568                       # Packet count per connected master and slave (bytes)
system.tol2bus.pkt_count_system.cpu.dcache.mem_side::system.l2.cpu_side       280540                       # Packet count per connected master and slave (bytes)
system.tol2bus.pkt_count::total               1488108                       # Packet count per connected master and slave (bytes)
system.tol2bus.pkt_size_system.cpu.icache.mem_side::system.l2.cpu_side     25754176                       # Cumulative packet size per connected master and slave (bytes)
system.tol2bus.pkt_size_system.cpu.dcache.mem_side::system.l2.cpu_side      5814688                       # Cumulative packet size per connected master and slave (bytes)
system.tol2bus.pkt_size::total               31568864                       # Cumulative packet size per connected master and slave (bytes)
system.tol2bus.snoops                           49503                       # Total snoops (count)
system.tol2bus.snoopTraffic                   1553056                       # Total snoop traffic (bytes)
system.tol2bus.snoop_fanout::samples           546449                       # Request fanout histogram
system.tol2bus.snoop_fanout::mean            0.001431                       # Request fanout histogram
system.tol2bus.snoop_fanout::stdev           0.038044                       # Request fanout histogram
system.tol2bus.snoop_fanout::underflows             0      0.00%      0.00% # Request fanout histogram
system.tol2bus.snoop_fanout::0                 545672     99.86%     99.86% # Request fanout histogram
system.tol2bus.snoop_fanout::1                    772      0.14%    100.00% # Request fanout histogram
system.tol2bus.snoop_fanout::2                      5      0.00%    100.00% # Request fanout histogram
system.tol2bus.snoop_fanout::overflows              0      0.00%    100.00% # Request fanout histogram
system.tol2bus.snoop_fanout::min_value              0                       # Request fanout histogram
system.tol2bus.snoop_fanout::max_value              2                       # Request fanout histogram
system.tol2bus.snoop_fanout::total             546449                       # Request fanout histogram
system.tol2bus.reqLayer0.occupancy          740372500                       # Layer occupancy (ticks)
system.tol2bus.reqLayer0.utilization              1.2                       # Layer utilization (%)
system.tol2bus.respLayer1.occupancy          94196998                       # Layer occupancy (ticks)
system.tol2bus.respLayer1.utilization             0.1                       # Layer utilization (%)
system.tol2bus.respLayer0.occupancy         402749499                       # Layer occupancy (ticks)
system.tol2bus.respLayer0.utilization             0.6                       # Layer utilization (%)
system.voltage_domain.voltage                       1                       # Voltage in Volts
system.clk_domain.clock                          1000                       # Clock period in ticks
system.l2.pwrStateResidencyTicks::UNDEFINED  63270398500                       # Cumulative time (in ticks) in various power states
system.l2.demand_hits::.cpu.inst               401948                       # number of demand (read+write) hits
system.l2.demand_hits::.cpu.data                12736                       # number of demand (read+write) hits
system.l2.demand_hits::total                   414684                       # number of demand (read+write) hits
system.l2.overall_hits::.cpu.inst              401948                       # number of overall hits
system.l2.overall_hits::.cpu.data               12736                       # number of overall hits
system.l2.overall_hits::total                  414684                       # number of overall hits
system.l2.demand_misses::.cpu.inst                802                       # number of demand (read+write) misses
system.l2.demand_misses::.cpu.data              81460                       # number of demand (read+write) misses
system.l2.demand_misses::total                  82262                       # number of demand (read+write) misses
system.l2.overall_misses::.cpu.inst               802                       # number of overall misses
system.l2.overall_misses::.cpu.data             81460                       # number of overall misses
system.l2.overall_misses::total                 82262                       # number of overall misses
system.l2.demand_miss_latency::.cpu.inst     60144500                       # number of demand (read+write) miss cycles
system.l2.demand_miss_latency::.cpu.data   6485341500                       # number of demand (read+write) miss cycles
system.l2.demand_miss_latency::total       6545486000                       # number of demand (read+write) miss cycles
system.l2.overall_miss_latency::.cpu.inst     60144500                       # number of overall miss cycles
system.l2.overall_miss_latency::.cpu.data   6485341500                       # number of overall miss cycles
system.l2.overall_miss_latency::total      6545486000                       # number of overall miss cycles
system.l2.demand_accesses::.cpu.inst           402750                       # number of demand (read+write) accesses
system.l2.demand_accesses::.cpu.data            94196                       # number of demand (read+write) accesses
system.l2.demand_accesses::total               496946                       # number of demand (read+write) accesses
system.l2.overall_accesses::.cpu.inst          402750                       # number of overall (read+write) accesses
system.l2.overall_accesses::.cpu.data           94196                       # number of overall (read+write) accesses
system.l2.overall_accesses::total              496946                       # number of overall (read+write) accesses
system.l2.demand_miss_rate::.cpu.inst        0.001991                       # miss rate for demand accesses
system.l2.demand_miss_rate::.cpu.data        0.864793                       # miss rate for demand accesses
system.l2.demand_miss_rate::total            0.165535                       # miss rate for demand accesses
system.l2.overall_miss_rate::.cpu.inst       0.001991                       # miss rate for overall accesses
system.l2.overall_miss_rate::.cpu.data       0.864793                       # miss rate for overall accesses
system.l2.overall_miss_rate::total           0.165535                       # miss rate for overall accesses
system.l2.demand_avg_miss_latency::.cpu.inst 74993.142145                       # average overall miss latency
system.l2.demand_avg_miss_latency::.cpu.data 79613.816597                       # average overall miss latency
system.l2.demand_avg_miss_latency::total 79568.768082                       # average overall miss latency
system.l2.overall_avg_miss_latency::.cpu.inst 74993.142145                       # average overall miss latency
system.l2.overall_avg_miss_latency::.cpu.data 79613.816597                       # average overall miss latency
system.l2.overall_avg_miss_latency::total 79568.768082                       # average overall miss latency
system.l2.blocked_cycles::no_mshrs                  0                       # number of cycles access was blocked
system.l2.blocked_cycles::no_targets                0                       # number of cycles access was blocked
system.l2.blocked::no_mshrs                         0                       # number of cycles access was blocked
system.l2.blocked::no_targets                       0                       # number of cycles access was blocked
system.l2.avg_blocked_cycles::no_mshrs            nan                       # average number of cycles each access was blocked
system.l2.avg_blocked_cycles::no_targets          nan                       # average number of cycles each access was blocked
system.l2.writebacks::.writebacks               48533                       # number of writebacks
system.l2.writebacks::total                     48533                       # number of writebacks
system.l2.demand_mshr_hits::.cpu.inst               1                       # number of demand (read+write) MSHR hits
system.l2.demand_mshr_hits::.cpu.data               2                       # number of demand (read+write) MSHR hits
system.l2.demand_mshr_hits::total                   3                       # number of demand (read+write) MSHR hits
system.l2.overall_mshr_hits::.cpu.inst              1                       # number of overall MSHR hits
system.l2.overall_mshr_hits::.cpu.data              2                       # number of overall MSHR hits
system.l2.overall_mshr_hits::total                  3                       # number of overall MSHR hits
system.l2.demand_mshr_misses::.cpu.inst           801                       # number of demand (read+write) MSHR misses
system.l2.demand_mshr_misses::.cpu.data         81458                       # number of demand (read+write) MSHR misses
system.l2.demand_mshr_misses::total             82259                       # number of demand (read+write) MSHR misses
system.l2.overall_mshr_misses::.cpu.inst          801                       # number of overall MSHR misses
system.l2.overall_mshr_misses::.cpu.data        81458                       # number of overall MSHR misses
system.l2.overall_mshr_misses::total            82259                       # number of overall MSHR misses
system.l2.demand_mshr_miss_latency::.cpu.inst     52103000                       # number of demand (read+write) MSHR miss cycles
system.l2.demand_mshr_miss_latency::.cpu.data   5670625500                       # number of demand (read+write) MSHR miss cycles
system.l2.demand_mshr_miss_latency::total   5722728500                       # number of demand (read+write) MSHR miss cycles
system.l2.overall_mshr_miss_latency::.cpu.inst     52103000                       # number of overall MSHR miss cycles
system.l2.overall_mshr_miss_latency::.cpu.data   5670625500                       # number of overall MSHR miss cycles
system.l2.overall_mshr_miss_latency::total   5722728500                       # number of overall MSHR miss cycles
system.l2.demand_mshr_miss_rate::.cpu.inst     0.001989                       # mshr miss rate for demand accesses
system.l2.demand_mshr_miss_rate::.cpu.data     0.864771                       # mshr miss rate for demand accesses
system.l2.demand_mshr_miss_rate::total       0.165529                       # mshr miss rate for demand accesses
system.l2.overall_mshr_miss_rate::.cpu.inst     0.001989                       # mshr miss rate for overall accesses
system.l2.overall_mshr_miss_rate::.cpu.data     0.864771                       # mshr miss rate for overall accesses
system.l2.overall_mshr_miss_rate::total      0.165529                       # mshr miss rate for overall accesses
system.l2.demand_avg_mshr_miss_latency::.cpu.inst 65047.440699                       # average overall mshr miss latency
system.l2.demand_avg_mshr_miss_latency::.cpu.data 69614.101746                       # average overall mshr miss latency
system.l2.demand_avg_mshr_miss_latency::total 69569.633718                       # average overall mshr miss latency
system.l2.overall_avg_mshr_miss_latency::.cpu.inst 65047.440699                       # average overall mshr miss latency
system.l2.overall_avg_mshr_miss_latency::.cpu.data 69614.101746                       # average overall mshr miss latency
system.l2.overall_avg_mshr_miss_latency::total 69569.633718                       # average overall mshr miss latency
system.l2.replacements                          49503                       # number of replacements
system.l2.WritebackDirty_hits::.writebacks        87513                       # number of WritebackDirty hits
system.l2.WritebackDirty_hits::total            87513                       # number of WritebackDirty hits
system.l2.WritebackDirty_accesses::.writebacks        87513                       # number of WritebackDirty accesses(hits+misses)
system.l2.WritebackDirty_accesses::total        87513                       # number of WritebackDirty accesses(hits+misses)
system.l2.WritebackClean_hits::.writebacks       402060                       # number of WritebackClean hits
system.l2.WritebackClean_hits::total           402060                       # number of WritebackClean hits
system.l2.WritebackClean_accesses::.writebacks       402060                       # number of WritebackClean accesses(hits+misses)
system.l2.WritebackClean_accesses::total       402060                       # number of WritebackClean accesses(hits+misses)
system.l2.CleanEvict_mshr_misses::.writebacks           32                       # number of CleanEvict MSHR misses
system.l2.CleanEvict_mshr_misses::total            32                       # number of CleanEvict MSHR misses
system.l2.CleanEvict_mshr_miss_rate::.writebacks          inf                       # mshr miss rate for CleanEvict accesses
system.l2.CleanEvict_mshr_miss_rate::total          inf                       # mshr miss rate for CleanEvict accesses
system.l2.ReadExReq_hits::.cpu.data                52                       # number of ReadExReq hits
system.l2.ReadExReq_hits::total                    52                       # number of ReadExReq hits
system.l2.ReadExReq_misses::.cpu.data           71612                       # number of ReadExReq misses
system.l2.ReadExReq_misses::total               71612                       # number of ReadExReq misses
system.l2.ReadExReq_miss_latency::.cpu.data   5657180000                       # number of ReadExReq miss cycles
system.l2.ReadExReq_miss_latency::total    5657180000                       # number of ReadExReq miss cycles
system.l2.ReadExReq_accesses::.cpu.data         71664                       # number of ReadExReq accesses(hits+misses)
system.l2.ReadExReq_accesses::total             71664                       # number of ReadExReq accesses(hits+misses)
system.l2.ReadExReq_miss_rate::.cpu.data     0.999274                       # miss rate for ReadExReq accesses
system.l2.ReadExReq_miss_rate::total         0.999274                       # miss rate for ReadExReq accesses
system.l2.ReadExReq_avg_miss_latency::.cpu.data 78997.654024                       # average ReadExReq miss latency
system.l2.ReadExReq_avg_miss_latency::total 78997.654024                       # average ReadExReq miss latency
system.l2.ReadExReq_mshr_misses::.cpu.data        71612                       # number of ReadExReq MSHR misses
system.l2.ReadExReq_mshr_misses::total          71612                       # number of ReadExReq MSHR misses
system.l2.ReadExReq_mshr_miss_latency::.cpu.data   4941060000                       # number of ReadExReq MSHR miss cycles
system.l2.ReadExReq_mshr_miss_latency::total   4941060000                       # number of ReadExReq MSHR miss cycles
system.l2.ReadExReq_mshr_miss_rate::.cpu.data     0.999274                       # mshr miss rate for ReadExReq accesses
system.l2.ReadExReq_mshr_miss_rate::total     0.999274                       # mshr miss rate for ReadExReq accesses
system.l2.ReadExReq_avg_mshr_miss_latency::.cpu.data 68997.654024                       # average ReadExReq mshr miss latency
system.l2.ReadExReq_avg_mshr_miss_latency::total 68997.654024                       # average ReadExReq mshr miss latency
system.l2.ReadCleanReq_hits::.cpu.inst         401948                       # number of ReadCleanReq hits
system.l2.ReadCleanReq_hits::total             401948                       # number of ReadCleanReq hits
system.l2.ReadCleanReq_misses::.cpu.inst          802                       # number of ReadCleanReq misses
system.l2.ReadCleanReq_misses::total              802                       # number of ReadCleanReq misses
system.l2.ReadCleanReq_miss_latency::.cpu.inst     60144500                       # number of ReadCleanReq miss cycles
system.l2.ReadCleanReq_miss_latency::total     60144500                       # number of ReadCleanReq miss cycles
system.l2.ReadCleanReq_accesses::.cpu.inst       402750                       # number of ReadCleanReq accesses(hits+misses)
system.l2.ReadCleanReq_accesses::total         402750                       # number of ReadCleanReq accesses(hits+misses)
system.l2.ReadCleanReq_miss_rate::.cpu.inst     0.001991                       # miss rate for ReadCleanReq accesses
system.l2.ReadCleanReq_miss_rate::total      0.001991                       # miss rate for ReadCleanReq accesses
system.l2.ReadCleanReq_avg_miss_latency::.cpu.inst 74993.142145                       # average ReadCleanReq miss latency
system.l2.ReadCleanReq_avg_miss_latency::total 74993.142145                       # average ReadCleanReq miss latency
system.l2.ReadCleanReq_mshr_hits::.cpu.inst            1                       # number of ReadCleanReq MSHR hits
system.l2.ReadCleanReq_mshr_hits::total             1                       # number of ReadCleanReq MSHR hits
system.l2.ReadCleanReq_mshr_misses::.cpu.inst          801                       # number of ReadCleanReq MSHR misses
system.l2.ReadCleanReq_mshr_misses::total          801                       # number of ReadCleanReq MSHR misses
system.l2.ReadCleanReq_mshr_miss_latency::.cpu.inst     52103000                       # number of ReadCleanReq MSHR miss cycles
system.l2.ReadCleanReq_mshr_miss_latency::total     52103000                       # number of ReadCleanReq MSHR miss cycles
system.l2.ReadCleanReq_mshr_miss_rate::.cpu.inst     0.001989                       # mshr miss rate for ReadCleanReq accesses
system.l2.ReadCleanReq_mshr_miss_rate::total     0.001989                       # mshr miss rate for ReadCleanReq accesses
system.l2.ReadCleanReq_avg_mshr_miss_latency::.cpu.inst 65047.440699                       # average ReadCleanReq mshr miss latency
system.l2.ReadCleanReq_avg_mshr_miss_latency::total 65047.440699                       # average ReadCleanReq mshr miss latency
system.l2.ReadSharedReq_hits::.cpu.data         12684                       # number of ReadSharedReq hits
system.l2.ReadSharedReq_hits::total             12684                       # number of ReadSharedReq hits
system.l2.ReadSharedReq_misses::.cpu.data         9848                       # number of ReadSharedReq misses
system.l2.ReadSharedReq_misses::total            9848                       # number of ReadSharedReq misses
system.l2.ReadSharedReq_miss_latency::.cpu.data    828161500                       # number of ReadSharedReq miss cycles
system.l2.ReadSharedReq_miss_latency::total    828161500                       # number of ReadSharedReq miss cycles
system.l2.ReadSharedReq_accesses::.cpu.data        22532                       # number of ReadSharedReq accesses(hits+misses)
system.l2.ReadSharedReq_accesses::total         22532                       # number of ReadSharedReq accesses(hits+misses)
system.l2.ReadSharedReq_miss_rate::.cpu.data     0.437067                       # miss rate for ReadSharedReq accesses
system.l2.ReadSharedReq_miss_rate::total     0.437067                       # miss rate for ReadSharedReq accesses
system.l2.ReadSharedReq_avg_miss_latency::.cpu.data 84094.384647                       # average ReadSharedReq miss latency
system.l2.ReadSharedReq_avg_miss_latency::total 84094.384647                       # average ReadSharedReq miss latency
system.l2.ReadSharedReq_mshr_hits::.cpu.data            2                       # number of ReadSharedReq MSHR hits
system.l2.ReadSharedReq_mshr_hits::total            2                       # number of ReadSharedReq MSHR hits
system.l2.ReadSharedReq_mshr_misses::.cpu.data         9846                       # number of ReadSharedReq MSHR misses
system.l2.ReadSharedReq_mshr_misses::total         9846                       # number of ReadSharedReq MSHR misses
system.l2.ReadSharedReq_mshr_miss_latency::.cpu.data    729565500                       # number of ReadSharedReq MSHR miss cycles
system.l2.ReadSharedReq_mshr_miss_latency::total    729565500                       # number of ReadSharedReq MSHR miss cycles
system.l2.ReadSharedReq_mshr_miss_rate::.cpu.data     0.436979                       # mshr miss rate for ReadSharedReq accesses
system.l2.ReadSharedReq_mshr_miss_rate::total     0.436979                       # mshr miss rate for ReadSharedReq accesses
system.l2.ReadSharedReq_avg_mshr_miss_latency::.cpu.data 74097.653870                       # average ReadSharedReq mshr miss latency
system.l2.ReadSharedReq_avg_mshr_miss_latency::total 74097.653870                       # average ReadSharedReq mshr miss latency
system.l2.tags.pwrStateResidencyTicks::UNDEFINED  63270398500                       # Cumulative time (in ticks) in various power states
system.l2.tags.tagsinuse                 30915.835705                       # Cycle average of tags in use
system.l2.tags.total_refs                      991107                       # Total number of references to valid blocks.
system.l2.tags.sampled_refs                     82271                       # Sample count of references to valid blocks.
system.l2.tags.avg_refs                     12.046857                       # Average number of references to valid blocks.
system.l2.tags.warmup_cycle                     77000                       # Cycle when the warmup percentage was hit.
system.l2.tags.occ_blocks::.writebacks       5.478093                       # Average occupied blocks per requestor
system.l2.tags.occ_blocks::.cpu.inst       110.306433                       # Average occupied blocks per requestor
system.l2.tags.occ_blocks::.cpu.data     30800.051179                       # Average occupied blocks per requestor
system.l2.tags.occ_percent::.writebacks      0.000167                       # Average percentage of cache occupancy
system.l2.tags.occ_percent::.cpu.inst        0.003366                       # Average percentage of cache occupancy
system.l2.tags.occ_percent::.cpu.data        0.939943                       # Average percentage of cache occupancy
system.l2.tags.occ_percent::total            0.943476                       # Average percentage of cache occupancy
system.l2.tags.occ_task_id_blocks::1024         32768                       # Occupied blocks per task id
system.l2.tags.age_task_id_blocks_1024::0            7                       # Occupied blocks per task id
system.l2.tags.age_task_id_blocks_1024::1           63                       # Occupied blocks per task id
system.l2.tags.age_task_id_blocks_1024::2          820                       # Occupied blocks per task id
system.l2.tags.age_task_id_blocks_1024::3         7370                       # Occupied blocks per task id
system.l2.tags.age_task_id_blocks_1024::4        24508                       # Occupied blocks per task id
system.l2.tags.occ_task_id_percent::1024            1                       # Percentage of cache occupancy per task id
system.l2.tags.tag_accesses                   4046839                       # Number of tag accesses
system.l2.tags.data_accesses                  4046839                       # Number of data accesses
system.cpu_voltage_domain.voltage                   1                       # Voltage in Volts
system.mem_ctrls.pwrStateResidencyTicks::UNDEFINED  63270398500                       # Cumulative time (in ticks) in various power states
system.mem_ctrls.bytes_read::.cpu.inst          25632                       # Number of bytes read from this memory
system.mem_ctrls.bytes_read::.cpu.data        2606656                       # Number of bytes read from this memory
system.mem_ctrls.bytes_read::total            2632288                       # Number of bytes read from this memory
system.mem_ctrls.bytes_inst_read::.cpu.inst        25632                       # Number of instructions bytes read from this memory
system.mem_ctrls.bytes_inst_read::total         25632                       # Number of instructions bytes read from this memory
system.mem_ctrls.bytes_written::.writebacks      1553056                       # Number of bytes written to this memory
system.mem_ctrls.bytes_written::total         1553056                       # Number of bytes written to this memory
system.mem_ctrls.num_reads::.cpu.inst             801                       # Number of read requests responded to by this memory
system.mem_ctrls.num_reads::.cpu.data           81458                       # Number of read requests responded to by this memory
system.mem_ctrls.num_reads::total               82259                       # Number of read requests responded to by this memory
system.mem_ctrls.num_writes::.writebacks        48533                       # Number of write requests responded to by this memory
system.mem_ctrls.num_writes::total              48533                       # Number of write requests responded to by this memory
system.mem_ctrls.bw_read::.cpu.inst            405118                       # Total read bandwidth from this memory (bytes/s)
system.mem_ctrls.bw_read::.cpu.data          41198666                       # Total read bandwidth from this memory (bytes/s)
system.mem_ctrls.bw_read::total              41603784                       # Total read bandwidth from this memory (bytes/s)
system.mem_ctrls.bw_inst_read::.cpu.inst       405118                       # Instruction read bandwidth from this memory (bytes/s)
system.mem_ctrls.bw_inst_read::total           405118                       # Instruction read bandwidth from this memory (bytes/s)
system.mem_ctrls.bw_write::.writebacks       24546329                       # Write bandwidth from this memory (bytes/s)
system.mem_ctrls.bw_write::total             24546329                       # Write bandwidth from this memory (bytes/s)
system.mem_ctrls.bw_total::.writebacks       24546329                       # Total bandwidth to/from this memory (bytes/s)
system.mem_ctrls.bw_total::.cpu.inst           405118                       # Total bandwidth to/from this memory (bytes/s)
system.mem_ctrls.bw_total::.cpu.data         41198666                       # Total bandwidth to/from this memory (bytes/s)
system.mem_ctrls.bw_total::total             66150113                       # Total bandwidth to/from this memory (bytes/s)
system.mem_ctrls.avgPriority_.writebacks::samples     33592.00                       # Average QoS priority value for accepted requests
system.mem_ctrls.avgPriority_.cpu.inst::samples       801.00                       # Average QoS priority value for accepted requests
system.mem_ctrls.avgPriority_.cpu.data::samples     81458.00                       # Average QoS priority value for accepted requests
system.mem_ctrls.priorityMinLatency      0.000000018750                       # per QoS priority minimum request to response latency (s)
system.mem_ctrls.priorityMaxLatency      0.003696066500                       # per QoS priority maximum request to response latency (s)
system.mem_ctrls.numReadWriteTurnArounds         1878                       # Number of turnarounds from READ to WRITE
system.mem_ctrls.numWriteReadTurnArounds         1878                       # Number of turnarounds from WRITE to READ
system.mem_ctrls.numStayReadState              228622                       # Number of times bus staying in READ state
system.mem_ctrls.numStayWriteState              31744                       # Number of times bus staying in WRITE state
system.mem_ctrls.readReqs                       82259                       # Number of read requests accepted
system.mem_ctrls.writeReqs                      48533                       # Number of write requests accepted
system.mem_ctrls.readBursts                     82259                       # Number of DRAM read bursts, including those serviced by the write queue
system.mem_ctrls.writeBursts                    48533                       # Number of DRAM write bursts, including those merged in the write queue
system.mem_ctrls.servicedByWrQ                      0                       # Number of DRAM read bursts serviced by the write queue
system.mem_ctrls.mergedWrBursts                 14941                       # Number of DRAM write bursts merged with an existing one
system.mem_ctrls.neitherReadNorWriteReqs            0                       # Number of requests that are neither read nor write
system.mem_ctrls.perBankRdBursts::0              5115                       # Per bank write bursts
system.mem_ctrls.perBankRdBursts::1              4873                       # Per bank write bursts
system.mem_ctrls.perBankRdBursts::2              4837                       # Per bank write bursts
system.mem_ctrls.perBankRdBursts::3              5347                       # Per bank write bursts
system.mem_ctrls.perBankRdBursts::4              5536                       # Per bank write bursts
system.mem_ctrls.perBankRdBursts::5              5097                       # Per bank write bursts
system.mem_ctrls.perBankRdBursts::6              5098                       # Per bank write bursts
system.mem_ctrls.perBankRdBursts::7              5120                       # Per bank write bursts
system.mem_ctrls.perBankRdBursts::8              5129                       # Per bank write bursts
system.mem_ctrls.perBankRdBursts::9              5163                       # Per bank write bursts
system.mem_ctrls.perBankRdBursts::10             5131                       # Per bank write bursts
system.mem_ctrls.perBankRdBursts::11             5156                       # Per bank write bursts
system.mem_ctrls.perBankRdBursts::12             5156                       # Per bank write bursts
system.mem_ctrls.perBankRdBursts::13             5104                       # Per bank write bursts
system.mem_ctrls.perBankRdBursts::14             5249                       # Per bank write bursts
system.mem_ctrls.perBankRdBursts::15             5148                       # Per bank write bursts
system.mem_ctrls.perBankWrBursts::0              2031                       # Per bank write bursts
system.mem_ctrls.perBankWrBursts::1              1933                       # Per bank write bursts
system.mem_ctrls.perBankWrBursts::2              1892                       # Per bank write bursts
system.mem_ctrls.perBankWrBursts::3              2144                       # Per bank write bursts
system.mem_ctrls.perBankWrBursts::4              2390                       # Per bank write bursts
system.mem_ctrls.perBankWrBursts::5              2123                       # Per bank write bursts
system.mem_ctrls.perBankWrBursts::6              2096                       # Per bank write bursts
system.mem_ctrls.perBankWrBursts::7              2099                       # Per bank write bursts
system.mem_ctrls.perBankWrBursts::8              2116                       # Per bank write bursts
system.mem_ctrls.perBankWrBursts::9              2076                       # Per bank write bursts
system.mem_ctrls.perBankWrBursts::10             2102                       # Per bank write bursts
system.mem_ctrls.perBankWrBursts::11             2075                       # Per bank write bursts
system.mem_ctrls.perBankWrBursts::12             2135                       # Per bank write bursts
system.mem_ctrls.perBankWrBursts::13             2102                       # Per bank write bursts
system.mem_ctrls.perBankWrBursts::14             2144                       # Per bank write bursts
system.mem_ctrls.perBankWrBursts::15             2112                       # Per bank write bursts
system.mem_ctrls.avgRdQLen                       1.08                       # Average read queue length when enqueuing
system.mem_ctrls.avgWrQLen                      22.54                       # Average write queue length when enqueuing
system.mem_ctrls.totQLat                    798757500                       # Total ticks spent queuing
system.mem_ctrls.totBusLat                  411295000                       # Total ticks spent in databus transfers
system.mem_ctrls.totMemAccLat              2341113750                       # Total ticks spent from burst creation until serviced by the DRAM
system.mem_ctrls.avgQLat                      9710.27                       # Average queueing delay per DRAM burst
system.mem_ctrls.avgBusLat                    5000.00                       # Average bus latency per DRAM burst
system.mem_ctrls.avgMemAccLat                28460.27                       # Average memory access latency per DRAM burst
system.mem_ctrls.numRdRetry                         0                       # Number of times read queue was full causing retry
system.mem_ctrls.numWrRetry                         0                       # Number of times write queue was full causing retry
system.mem_ctrls.readRowHits                    64483                       # Number of row buffer hits during reads
system.mem_ctrls.writeRowHits                   27029                       # Number of row buffer hits during writes
system.mem_ctrls.readRowHitRate                 78.39                       # Row buffer hit rate for reads
system.mem_ctrls.writeRowHitRate                80.46                       # Row buffer hit rate for writes
system.mem_ctrls.readPktSize::0                     0                       # Read request sizes (log2)
system.mem_ctrls.readPktSize::1                     0                       # Read request sizes (log2)
system.mem_ctrls.readPktSize::2                     0                       # Read request sizes (log2)
system.mem_ctrls.readPktSize::3                     0                       # Read request sizes (log2)
system.mem_ctrls.readPktSize::4                     0                       # Read request sizes (log2)
system.mem_ctrls.readPktSize::5                 82259                       # Read request sizes (log2)
system.mem_ctrls.readPktSize::6                     0                       # Read request sizes (log2)
system.mem_ctrls.writePktSize::0                    0                       # Write request sizes (log2)
system.mem_ctrls.writePktSize::1                    0                       # Write request sizes (log2)
system.mem_ctrls.writePktSize::2                    0                       # Write request sizes (log2)
system.mem_ctrls.writePktSize::3                    0                       # Write request sizes (log2)
system.mem_ctrls.writePktSize::4                    0                       # Write request sizes (log2)
system.mem_ctrls.writePktSize::5                48533                       # Write request sizes (log2)
system.mem_ctrls.writePktSize::6                    0                       # Write request sizes (log2)
system.mem_ctrls.rdQLenPdf::0                   71082                       # What read queue length does an incoming req see
system.mem_ctrls.rdQLenPdf::1                   11158                       # What read queue length does an incoming req see
system.mem_ctrls.rdQLenPdf::2                      19                       # What read queue length does an incoming req see
system.mem_ctrls.rdQLenPdf::3                       0                       # What read queue length does an incoming req see
system.mem_ctrls.rdQLenPdf::4                       0                       # What read queue length does an incoming req see
system.mem_ctrls.rdQLenPdf::5                       0                       # What read queue length does an incoming req see
system.mem_ctrls.rdQLenPdf::6                       0                       # What read queue length does an incoming req see
system.mem_ctrls.rdQLenPdf::7                       0                       # What read queue length does an incoming req see
system.mem_ctrls.rdQLenPdf::8                       0                       # What read queue length does an incoming req see
system.mem_ctrls.rdQLenPdf::9                       0                       # What read queue length does an incoming req see
system.mem_ctrls.rdQLenPdf::10                      0                       # What read queue length does an incoming req see
system.mem_ctrls.rdQLenPdf::11                      0                       # What read queue length does an incoming req see
system.mem_ctrls.rdQLenPdf::12                      0                       # What read queue length does an incoming req see
system.mem_ctrls.rdQLenPdf::13                      0                       # What read queue length does an incoming req see
system.mem_ctrls.rdQLenPdf::14                      0                       # What read queue length does an incoming req see
system.mem_ctrls.rdQLenPdf::15                      0                       # What read queue length does an incoming req see
system.mem_ctrls.rdQLenPdf::16                      0                       # What read queue length does an incoming req see
system.mem_ctrls.rdQLenPdf::17                      0                       # What read queue length does an incoming req see
system.mem_ctrls.rdQLenPdf::18                      0                       # What read queue length does an incoming req see
system.mem_ctrls.rdQLenPdf::19                      0                       # What read queue length does an incoming req see
system.mem_ctrls.rdQLenPdf::20                      0                       # What read queue length does an incoming req see
system.mem_ctrls.rdQLenPdf::21                      0                       # What read queue length does an incoming req see
system.mem_ctrls.rdQLenPdf::22                      0                       # What read queue length does an incoming req see
system.mem_ctrls.rdQLenPdf::23                      0                       # What read queue length does an incoming req see
system.mem_ctrls.rdQLenPdf::24                      0                       # What read queue length does an incoming req see
system.mem_ctrls.rdQLenPdf::25                      0                       # What read queue length does an incoming req see
system.mem_ctrls.rdQLenPdf::26                      0                       # What read queue length does an incoming req see
system.mem_ctrls.rdQLenPdf::27                      0                       # What read queue length does an incoming req see
system.mem_ctrls.rdQLenPdf::28                      0                       # What read queue length does an incoming req see
system.mem_ctrls.rdQLenPdf::29                      0                       # What read queue length does an incoming req see
system.mem_ctrls.rdQLenPdf::30                      0                       # What read queue length does an incoming req see
system.mem_ctrls.rdQLenPdf::31                      0                       # What read queue length does an incoming req see
system.mem_ctrls.wrQLenPdf::0                       1                       # What write queue length does an incoming req see
system.mem_ctrls.wrQLenPdf::1                       1                       # What write queue length does an incoming req see
system.mem_ctrls.wrQLenPdf::2                       1                       # What write queue length does an incoming req see
system.mem_ctrls.wrQLenPdf::3                       1                       # What write queue length does an incoming req see
system.mem_ctrls.wrQLenPdf::4                       1                       # What write queue length does an incoming req see
system.mem_ctrls.wrQLenPdf::5                       1                       # What write queue length does an incoming req see
system.mem_ctrls.wrQLenPdf::6                       1                       # What write queue length does an incoming req see
system.mem_ctrls.wrQLenPdf::7                       1                       # What write queue length does an incoming req see
system.mem_ctrls.wrQLenPdf::8                       1                       # What write queue length does an incoming req see
system.mem_ctrls.wrQLenPdf::9                       1                       # What write queue length does an incoming req see
system.mem_ctrls.wrQLenPdf::10                      1                       # What write queue length does an incoming req see
system.mem_ctrls.wrQLenPdf::11                      1                       # What write queue length does an incoming req see
system.mem_ctrls.wrQLenPdf::12                      1                       # What write queue length does an incoming req see
system.mem_ctrls.wrQLenPdf::13                      1                       # What write queue length does an incoming req see
system.mem_ctrls.wrQLenPdf::14                      1                       # What write queue length does an incoming req see
system.mem_ctrls.wrQLenPdf::15                   1692                       # What write queue length does an incoming req see
system.mem_ctrls.wrQLenPdf::16                   1693                       # What write queue length does an incoming req see
system.mem_ctrls.wrQLenPdf::17                   1880                       # What write queue length does an incoming req see
system.mem_ctrls.wrQLenPdf::18                   1880                       # What write queue length does an incoming req see
system.mem_ctrls.wrQLenPdf::19                   1880                       # What write queue length does an incoming req see
system.mem_ctrls.wrQLenPdf::20                   1880                       # What write queue length does an incoming req see
system.mem_ctrls.wrQLenPdf::21                   1883                       # What write queue length does an incoming req see
system.mem_ctrls.wrQLenPdf::22                   1882                       # What write queue length does an incoming req see
system.mem_ctrls.wrQLenPdf::23                   1884                       # What write queue length does an incoming req see
system.mem_ctrls.wrQLenPdf::24                   1909                       # What write queue length does an incoming req see
system.mem_ctrls.wrQLenPdf::25                   1888                       # What write queue length does an incoming req see
system.mem_ctrls.wrQLenPdf::26                   1909                       # What write queue length does an incoming req see
system.mem_ctrls.wrQLenPdf::27                   1898                       # What write queue length does an incoming req see
system.mem_ctrls.wrQLenPdf::28                   1889                       # What write queue length does an incoming req see
system.mem_ctrls.wrQLenPdf::29                   1892                       # What write queue length does an incoming req see
system.mem_ctrls.wrQLenPdf::30                   1880                       # What write queue length does an incoming req see
system.mem_ctrls.wrQLenPdf::31                   1879                       # What write queue length does an incoming req see
system.mem_ctrls.wrQLenPdf::32                   1878                       # What write queue length does an incoming req see
system.mem_ctrls.wrQLenPdf::33                      1                       # What write queue length does an incoming req see
system.mem_ctrls.wrQLenPdf::34                      0                       # What write queue length does an incoming req see
system.mem_ctrls.wrQLenPdf::35                      0                       # What write queue length does an incoming req see
system.mem_ctrls.wrQLenPdf::36                      0                       # What write queue length does an incoming req see
system.mem_ctrls.wrQLenPdf::37                      0                       # What write queue length does an incoming req see
system.mem_ctrls.wrQLenPdf::38                      0                       # What write queue length does an incoming req see
system.mem_ctrls.wrQLenPdf::39                      0                       # What write queue length does an incoming req see
system.mem_ctrls.wrQLenPdf::40                      0                       # What write queue length does an incoming req see
system.mem_ctrls.wrQLenPdf::41                      0                       # What write queue length does an incoming req see
system.mem_ctrls.wrQLenPdf::42                      0                       # What write queue length does an incoming req see
system.mem_ctrls.wrQLenPdf::43                      0                       # What write queue length does an incoming req see
system.mem_ctrls.wrQLenPdf::44                      0                       # What write queue length does an incoming req see
system.mem_ctrls.wrQLenPdf::45                      0                       # What write queue length does an incoming req see
system.mem_ctrls.wrQLenPdf::46                      0                       # What write queue length does an incoming req see
system.mem_ctrls.wrQLenPdf::47                      0                       # What write queue length does an incoming req see
system.mem_ctrls.wrQLenPdf::48                      0                       # What write queue length does an incoming req see
system.mem_ctrls.wrQLenPdf::49                      0                       # What write queue length does an incoming req see
system.mem_ctrls.wrQLenPdf::50                      0                       # What write queue length does an incoming req see
system.mem_ctrls.wrQLenPdf::51                      0                       # What write queue length does an incoming req see
system.mem_ctrls.wrQLenPdf::52                      0                       # What write queue length does an incoming req see
system.mem_ctrls.wrQLenPdf::53                      0                       # What write queue length does an incoming req see
system.mem_ctrls.wrQLenPdf::54                      0                       # What write queue length does an incoming req see
system.mem_ctrls.wrQLenPdf::55                      0                       # What write queue length does an incoming req see
system.mem_ctrls.wrQLenPdf::56                      0                       # What write queue length does an incoming req see
system.mem_ctrls.wrQLenPdf::57                      0                       # What write queue length does an incoming req see
system.mem_ctrls.wrQLenPdf::58                      0                       # What write queue length does an incoming req see
system.mem_ctrls.wrQLenPdf::59                      0                       # What write queue length does an incoming req see
system.mem_ctrls.wrQLenPdf::60                      0                       # What write queue length does an incoming req see
system.mem_ctrls.wrQLenPdf::61                      0                       # What write queue length does an incoming req see
system.mem_ctrls.wrQLenPdf::62                      0                       # What write queue length does an incoming req see
system.mem_ctrls.wrQLenPdf::63                      0                       # What write queue length does an incoming req see
system.mem_ctrls.bytesPerActivate::samples        24316                       # Bytes accessed per row activation
system.mem_ctrls.bytesPerActivate::mean    304.850140                       # Bytes accessed per row activation
system.mem_ctrls.bytesPerActivate::gmean   201.192417                       # Bytes accessed per row activation
system.mem_ctrls.bytesPerActivate::stdev   273.791304                       # Bytes accessed per row activation
system.mem_ctrls.bytesPerActivate::0-127         7753     31.88%     31.88% # Bytes accessed per row activation
system.mem_ctrls.bytesPerActivate::128-255         4306     17.71%     49.59% # Bytes accessed per row activation
system.mem_ctrls.bytesPerActivate::256-383         4041     16.62%     66.21% # Bytes accessed per row activation
system.mem_ctrls.bytesPerActivate::384-511         3381     13.90%     80.12% # Bytes accessed per row activation
system.mem_ctrls.bytesPerActivate::512-639         1731      7.12%     87.23% # Bytes accessed per row activation
system.mem_ctrls.bytesPerActivate::640-767          808      3.32%     90.56% # Bytes accessed per row activation
system.mem_ctrls.bytesPerActivate::768-895          301      1.24%     91.80% # Bytes accessed per row activation
system.mem_ctrls.bytesPerActivate::896-1023          787      3.24%     95.03% # Bytes accessed per row activation
system.mem_ctrls.bytesPerActivate::1024-1151         1208      4.97%    100.00% # Bytes accessed per row activation
system.mem_ctrls.bytesPerActivate::total        24316                       # Bytes accessed per row activation
system.mem_ctrls.rdPerTurnAround::samples         1878                       # Reads before turning the bus around for writes
system.mem_ctrls.rdPerTurnAround::mean      43.797657                       # Reads before turning the bus around for writes
system.mem_ctrls.rdPerTurnAround::gmean     26.531970                       # Reads before turning the bus around for writes
system.mem_ctrls.rdPerTurnAround::stdev    583.604134                       # Reads before turning the bus around for writes
system.mem_ctrls.rdPerTurnAround::0-1023         1876     99.89%     99.89% # Reads before turning the bus around for writes
system.mem_ctrls.rdPerTurnAround::3072-4095            1      0.05%     99.95% # Reads before turning the bus around for writes
[...]
system.cpu.icache.tags.age_task_id_blocks_1024::0            6                       # Occupied blocks per task id
system.cpu.icache.tags.age_task_id_blocks_1024::2           11                       # Occupied blocks per task id
system.cpu.icache.tags.age_task_id_blocks_1024::4          663                       # Occupied blocks per task id
system.cpu.icache.tags.occ_task_id_percent::1024     0.664062                       # Percentage of cache occupancy per task id
system.cpu.icache.tags.tag_accesses          61559389                       # Number of tag accesses
system.cpu.icache.tags.data_accesses         61559389                       # Number of data accesses
system.cpu.dtb.walker.pwrStateResidencyTicks::UNDEFINED  63270398500                       # Cumulative time (in ticks) in various power states
system.cpu.dtb.stage2_mmu.stage2_tlb.walker.pwrStateResidencyTicks::UNDEFINED  63270398500                       # Cumulative time (in ticks) in various power states
system.cpu.dcache.pwrStateResidencyTicks::UNDEFINED  63270398500                       # Cumulative time (in ticks) in various power states
system.cpu.dcache.demand_hits::.cpu.data     35757196                       # number of demand (read+write) hits
system.cpu.dcache.demand_hits::total         35757196                       # number of demand (read+write) hits
system.cpu.dcache.overall_hits::.cpu.data     35760521                       # number of overall hits
system.cpu.dcache.overall_hits::total        35760521                       # number of overall hits
system.cpu.dcache.demand_misses::.cpu.data       115070                       # number of demand (read+write) misses
system.cpu.dcache.demand_misses::total         115070                       # number of demand (read+write) misses
system.cpu.dcache.overall_misses::.cpu.data       115106                       # number of overall misses
system.cpu.dcache.overall_misses::total        115106                       # number of overall misses
system.cpu.dcache.demand_miss_latency::.cpu.data   7980389000                       # number of demand (read+write) miss cycles
system.cpu.dcache.demand_miss_latency::total   7980389000                       # number of demand (read+write) miss cycles
system.cpu.dcache.overall_miss_latency::.cpu.data   7980389000                       # number of overall miss cycles
system.cpu.dcache.overall_miss_latency::total   7980389000                       # number of overall miss cycles
system.cpu.dcache.demand_accesses::.cpu.data     35872266                       # number of demand (read+write) accesses
system.cpu.dcache.demand_accesses::total     35872266                       # number of demand (read+write) accesses
system.cpu.dcache.overall_accesses::.cpu.data     35875627                       # number of overall (read+write) accesses
system.cpu.dcache.overall_accesses::total     35875627                       # number of overall (read+write) accesses
system.cpu.dcache.demand_miss_rate::.cpu.data     0.003208                       # miss rate for demand accesses
system.cpu.dcache.demand_miss_rate::total     0.003208                       # miss rate for demand accesses
system.cpu.dcache.overall_miss_rate::.cpu.data     0.003208                       # miss rate for overall accesses
system.cpu.dcache.overall_miss_rate::total     0.003208                       # miss rate for overall accesses
system.cpu.dcache.demand_avg_miss_latency::.cpu.data 69352.472408                       # average overall miss latency
system.cpu.dcache.demand_avg_miss_latency::total 69352.472408                       # average overall miss latency
system.cpu.dcache.overall_avg_miss_latency::.cpu.data 69330.782062                       # average overall miss latency
system.cpu.dcache.overall_avg_miss_latency::total 69330.782062                       # average overall miss latency
system.cpu.dcache.blocked_cycles::no_mshrs            0                       # number of cycles access was blocked
system.cpu.dcache.blocked_cycles::no_targets            0                       # number of cycles access was blocked
system.cpu.dcache.blocked::no_mshrs                 0                       # number of cycles access was blocked
system.cpu.dcache.blocked::no_targets               0                       # number of cycles access was blocked
system.cpu.dcache.avg_blocked_cycles::no_mshrs          nan                       # average number of cycles each access was blocked
system.cpu.dcache.avg_blocked_cycles::no_targets          nan                       # average number of cycles each access was blocked
system.cpu.dcache.writebacks::.writebacks        87513                       # number of writebacks
system.cpu.dcache.writebacks::total             87513                       # number of writebacks
system.cpu.dcache.demand_mshr_hits::.cpu.data        20911                       # number of demand (read+write) MSHR hits
system.cpu.dcache.demand_mshr_hits::total        20911                       # number of demand (read+write) MSHR hits
system.cpu.dcache.overall_mshr_hits::.cpu.data        20911                       # number of overall MSHR hits
system.cpu.dcache.overall_mshr_hits::total        20911                       # number of overall MSHR hits
system.cpu.dcache.demand_mshr_misses::.cpu.data        94159                       # number of demand (read+write) MSHR misses
system.cpu.dcache.demand_mshr_misses::total        94159                       # number of demand (read+write) MSHR misses
system.cpu.dcache.overall_mshr_misses::.cpu.data        94195                       # number of overall MSHR misses
system.cpu.dcache.overall_mshr_misses::total        94195                       # number of overall MSHR misses
system.cpu.dcache.demand_mshr_miss_latency::.cpu.data   6758101000                       # number of demand (read+write) MSHR miss cycles
system.cpu.dcache.demand_mshr_miss_latency::total   6758101000                       # number of demand (read+write) MSHR miss cycles
system.cpu.dcache.overall_mshr_miss_latency::.cpu.data   6760276000                       # number of overall MSHR miss cycles
system.cpu.dcache.overall_mshr_miss_latency::total   6760276000                       # number of overall MSHR miss cycles
system.cpu.dcache.demand_mshr_miss_rate::.cpu.data     0.002625                       # mshr miss rate for demand accesses
system.cpu.dcache.demand_mshr_miss_rate::total     0.002625                       # mshr miss rate for demand accesses
system.cpu.dcache.overall_mshr_miss_rate::.cpu.data     0.002626                       # mshr miss rate for overall accesses
system.cpu.dcache.overall_mshr_miss_rate::total     0.002626                       # mshr miss rate for overall accesses
system.cpu.dcache.demand_avg_mshr_miss_latency::.cpu.data 71773.287737                       # average overall mshr miss latency
system.cpu.dcache.demand_avg_mshr_miss_latency::total 71773.287737                       # average overall mshr miss latency
system.cpu.dcache.overall_avg_mshr_miss_latency::.cpu.data 71768.947396                       # average overall mshr miss latency
system.cpu.dcache.overall_avg_mshr_miss_latency::total 71768.947396                       # average overall mshr miss latency
system.cpu.dcache.replacements                  92148                       # number of replacements
system.cpu.dcache.ReadReq_hits::.cpu.data     21546195                       # number of ReadReq hits
system.cpu.dcache.ReadReq_hits::total        21546195                       # number of ReadReq hits
system.cpu.dcache.ReadReq_misses::.cpu.data        26772                       # number of ReadReq misses
system.cpu.dcache.ReadReq_misses::total         26772                       # number of ReadReq misses
system.cpu.dcache.ReadReq_miss_latency::.cpu.data   1093363500                       # number of ReadReq miss cycles
system.cpu.dcache.ReadReq_miss_latency::total   1093363500                       # number of ReadReq miss cycles
system.cpu.dcache.ReadReq_accesses::.cpu.data     21572967                       # number of ReadReq accesses(hits+misses)
system.cpu.dcache.ReadReq_accesses::total     21572967                       # number of ReadReq accesses(hits+misses)
system.cpu.dcache.ReadReq_miss_rate::.cpu.data     0.001241                       # miss rate for ReadReq accesses
system.cpu.dcache.ReadReq_miss_rate::total     0.001241                       # miss rate for ReadReq accesses
system.cpu.dcache.ReadReq_avg_miss_latency::.cpu.data 40839.813985                       # average ReadReq miss latency
system.cpu.dcache.ReadReq_avg_miss_latency::total 40839.813985                       # average ReadReq miss latency
system.cpu.dcache.ReadReq_mshr_hits::.cpu.data         4277                       # number of ReadReq MSHR hits
system.cpu.dcache.ReadReq_mshr_hits::total         4277                       # number of ReadReq MSHR hits
system.cpu.dcache.ReadReq_mshr_misses::.cpu.data        22495                       # number of ReadReq MSHR misses
system.cpu.dcache.ReadReq_mshr_misses::total        22495                       # number of ReadReq MSHR misses
system.cpu.dcache.ReadReq_mshr_miss_latency::.cpu.data    992878500                       # number of ReadReq MSHR miss cycles
system.cpu.dcache.ReadReq_mshr_miss_latency::total    992878500                       # number of ReadReq MSHR miss cycles
system.cpu.dcache.ReadReq_mshr_miss_rate::.cpu.data     0.001043                       # mshr miss rate for ReadReq accesses
system.cpu.dcache.ReadReq_mshr_miss_rate::total     0.001043                       # mshr miss rate for ReadReq accesses
system.cpu.dcache.ReadReq_avg_mshr_miss_latency::.cpu.data 44137.741720                       # average ReadReq mshr miss latency
system.cpu.dcache.ReadReq_avg_mshr_miss_latency::total 44137.741720                       # average ReadReq mshr miss latency
system.cpu.dcache.WriteReq_hits::.cpu.data     14211001                       # number of WriteReq hits
system.cpu.dcache.WriteReq_hits::total       14211001                       # number of WriteReq hits
system.cpu.dcache.WriteReq_misses::.cpu.data        88298                       # number of WriteReq misses
system.cpu.dcache.WriteReq_misses::total        88298                       # number of WriteReq misses
system.cpu.dcache.WriteReq_miss_latency::.cpu.data   6887025500                       # number of WriteReq miss cycles
system.cpu.dcache.WriteReq_miss_latency::total   6887025500                       # number of WriteReq miss cycles
system.cpu.dcache.WriteReq_accesses::.cpu.data     14299299                       # number of WriteReq accesses(hits+misses)
system.cpu.dcache.WriteReq_accesses::total     14299299                       # number of WriteReq accesses(hits+misses)
system.cpu.dcache.WriteReq_miss_rate::.cpu.data     0.006175                       # miss rate for WriteReq accesses
system.cpu.dcache.WriteReq_miss_rate::total     0.006175                       # miss rate for WriteReq accesses
system.cpu.dcache.WriteReq_avg_miss_latency::.cpu.data 77997.525425                       # average WriteReq miss latency
system.cpu.dcache.WriteReq_avg_miss_latency::total 77997.525425                       # average WriteReq miss latency
system.cpu.dcache.WriteReq_mshr_hits::.cpu.data        16634                       # number of WriteReq MSHR hits
system.cpu.dcache.WriteReq_mshr_hits::total        16634                       # number of WriteReq MSHR hits
system.cpu.dcache.WriteReq_mshr_misses::.cpu.data        71664                       # number of WriteReq MSHR misses
system.cpu.dcache.WriteReq_mshr_misses::total        71664                       # number of WriteReq MSHR misses
system.cpu.dcache.WriteReq_mshr_miss_latency::.cpu.data   5765222500                       # number of WriteReq MSHR miss cycles
system.cpu.dcache.WriteReq_mshr_miss_latency::total   5765222500                       # number of WriteReq MSHR miss cycles
system.cpu.dcache.WriteReq_mshr_miss_rate::.cpu.data     0.005012                       # mshr miss rate for WriteReq accesses
system.cpu.dcache.WriteReq_mshr_miss_rate::total     0.005012                       # mshr miss rate for WriteReq accesses
system.cpu.dcache.WriteReq_avg_mshr_miss_latency::.cpu.data 80447.958529                       # average WriteReq mshr miss latency
system.cpu.dcache.WriteReq_avg_mshr_miss_latency::total 80447.958529                       # average WriteReq mshr miss latency
system.cpu.dcache.SoftPFReq_hits::.cpu.data         3325                       # number of SoftPFReq hits
system.cpu.dcache.SoftPFReq_hits::total          3325                       # number of SoftPFReq hits
system.cpu.dcache.SoftPFReq_misses::.cpu.data           36                       # number of SoftPFReq misses
system.cpu.dcache.SoftPFReq_misses::total           36                       # number of SoftPFReq misses
system.cpu.dcache.SoftPFReq_accesses::.cpu.data         3361                       # number of SoftPFReq accesses(hits+misses)
system.cpu.dcache.SoftPFReq_accesses::total         3361                       # number of SoftPFReq accesses(hits+misses)
system.cpu.dcache.SoftPFReq_miss_rate::.cpu.data     0.010711                       # miss rate for SoftPFReq accesses
system.cpu.dcache.SoftPFReq_miss_rate::total     0.010711                       # miss rate for SoftPFReq accesses
system.cpu.dcache.SoftPFReq_mshr_misses::.cpu.data           36                       # number of SoftPFReq MSHR misses
system.cpu.dcache.SoftPFReq_mshr_misses::total           36                       # number of SoftPFReq MSHR misses
system.cpu.dcache.SoftPFReq_mshr_miss_latency::.cpu.data      2175000                       # number of SoftPFReq MSHR miss cycles
system.cpu.dcache.SoftPFReq_mshr_miss_latency::total      2175000                       # number of SoftPFReq MSHR miss cycles
system.cpu.dcache.SoftPFReq_mshr_miss_rate::.cpu.data     0.010711                       # mshr miss rate for SoftPFReq accesses
system.cpu.dcache.SoftPFReq_mshr_miss_rate::total     0.010711                       # mshr miss rate for SoftPFReq accesses
system.cpu.dcache.SoftPFReq_avg_mshr_miss_latency::.cpu.data 60416.666667                       # average SoftPFReq mshr miss latency
system.cpu.dcache.SoftPFReq_avg_mshr_miss_latency::total 60416.666667                       # average SoftPFReq mshr miss latency
system.cpu.dcache.LoadLockedReq_hits::.cpu.data        89081                       # number of LoadLockedReq hits
system.cpu.dcache.LoadLockedReq_hits::total        89081                       # number of LoadLockedReq hits
system.cpu.dcache.LoadLockedReq_misses::.cpu.data            1                       # number of LoadLockedReq misses
system.cpu.dcache.LoadLockedReq_misses::total            1                       # number of LoadLockedReq misses
system.cpu.dcache.LoadLockedReq_miss_latency::.cpu.data       100500                       # number of LoadLockedReq miss cycles
system.cpu.dcache.LoadLockedReq_miss_latency::total       100500                       # number of LoadLockedReq miss cycles
system.cpu.dcache.LoadLockedReq_accesses::.cpu.data        89082                       # number of LoadLockedReq accesses(hits+misses)
system.cpu.dcache.LoadLockedReq_accesses::total        89082                       # number of LoadLockedReq accesses(hits+misses)
system.cpu.dcache.LoadLockedReq_miss_rate::.cpu.data     0.000011                       # miss rate for LoadLockedReq accesses
system.cpu.dcache.LoadLockedReq_miss_rate::total     0.000011                       # miss rate for LoadLockedReq accesses
system.cpu.dcache.LoadLockedReq_avg_miss_latency::.cpu.data       100500                       # average LoadLockedReq miss latency
system.cpu.dcache.LoadLockedReq_avg_miss_latency::total       100500                       # average LoadLockedReq miss latency
system.cpu.dcache.LoadLockedReq_mshr_misses::.cpu.data            1                       # number of LoadLockedReq MSHR misses
system.cpu.dcache.LoadLockedReq_mshr_misses::total            1                       # number of LoadLockedReq MSHR misses
system.cpu.dcache.LoadLockedReq_mshr_miss_latency::.cpu.data        99500                       # number of LoadLockedReq MSHR miss cycles
system.cpu.dcache.LoadLockedReq_mshr_miss_latency::total        99500                       # number of LoadLockedReq MSHR miss cycles
system.cpu.dcache.LoadLockedReq_mshr_miss_rate::.cpu.data     0.000011                       # mshr miss rate for LoadLockedReq accesses
system.cpu.dcache.LoadLockedReq_mshr_miss_rate::total     0.000011                       # mshr miss rate for LoadLockedReq accesses
system.cpu.dcache.LoadLockedReq_avg_mshr_miss_latency::.cpu.data        99500                       # average LoadLockedReq mshr miss latency
system.cpu.dcache.LoadLockedReq_avg_mshr_miss_latency::total        99500                       # average LoadLockedReq mshr miss latency
system.cpu.dcache.StoreCondReq_hits::.cpu.data        89082                       # number of StoreCondReq hits
system.cpu.dcache.StoreCondReq_hits::total        89082                       # number of StoreCondReq hits
system.cpu.dcache.StoreCondReq_accesses::.cpu.data        89082                       # number of StoreCondReq accesses(hits+misses)
system.cpu.dcache.StoreCondReq_accesses::total        89082                       # number of StoreCondReq accesses(hits+misses)
system.cpu.dcache.tags.pwrStateResidencyTicks::UNDEFINED  63270398500                       # Cumulative time (in ticks) in various power states
system.cpu.dcache.tags.tagsinuse          2039.204239                       # Cycle average of tags in use
system.cpu.dcache.tags.total_refs            36032880                       # Total number of references to valid blocks.
system.cpu.dcache.tags.sampled_refs             94196                       # Sample count of references to valid blocks.
system.cpu.dcache.tags.avg_refs            382.530893                       # Average number of references to valid blocks.
system.cpu.dcache.tags.warmup_cycle            195500                       # Cycle when the warmup percentage was hit.
system.cpu.dcache.tags.occ_blocks::.cpu.data  2039.204239                       # Average occupied blocks per requestor
system.cpu.dcache.tags.occ_percent::.cpu.data     0.995705                       # Average percentage of cache occupancy
system.cpu.dcache.tags.occ_percent::total     0.995705                       # Average percentage of cache occupancy
system.cpu.dcache.tags.occ_task_id_blocks::1024         2048                       # Occupied blocks per task id
system.cpu.dcache.tags.age_task_id_blocks_1024::0            8                       # Occupied blocks per task id
system.cpu.dcache.tags.age_task_id_blocks_1024::1           82                       # Occupied blocks per task id
system.cpu.dcache.tags.age_task_id_blocks_1024::2          815                       # Occupied blocks per task id
system.cpu.dcache.tags.age_task_id_blocks_1024::3         1038                       # Occupied blocks per task id
system.cpu.dcache.tags.age_task_id_blocks_1024::4          105                       # Occupied blocks per task id
system.cpu.dcache.tags.occ_task_id_percent::1024            1                       # Percentage of cache occupancy per task id
system.cpu.dcache.tags.tag_accesses          72201778                       # Number of tag accesses
system.cpu.dcache.tags.data_accesses         72201778                       # Number of data accesses
system.cpu.itb.walker.pwrStateResidencyTicks::UNDEFINED  63270398500                       # Cumulative time (in ticks) in various power states
system.cpu.itb.stage2_mmu.stage2_tlb.walker.pwrStateResidencyTicks::UNDEFINED  63270398500                       # Cumulative time (in ticks) in various power states

---------- End Simulation Statistics   ----------
