
---------- Begin Simulation Statistics ----------
final_tick                                83982163500                       # Number of ticks from beginning of simulation (restored from checkpoints and never reset)
host_inst_rate                                 241968                       # Simulator instruction rate (inst/s)
host_mem_usage                                 691760                       # Number of bytes of host memory used
host_op_rate                                   242443                       # Simulator op (including micro ops) rate (op/s)
host_seconds                                   413.28                       # Real time elapsed on the host
host_tick_rate                              203209441                       # Simulator tick rate (ticks/s)
sim_freq                                 1000000000000                       # Frequency of simulated ticks
sim_insts                                   100000000                       # Number of instructions simulated
sim_ops                                     100196369                       # Number of ops (including micro ops) simulated
sim_seconds                                  0.083982                       # Number of seconds simulated
sim_ticks                                 83982163500                       # Number of ticks simulated
system.cpu.branchPred.BTBCorrect                    0                       # Number of correct BTB predictions (this stat may not work properly.
system.cpu.branchPred.BTBHitPct             99.694740                       # BTB Hit Percentage
system.cpu.branchPred.BTBHits                 2095399                       # Number of BTB hits
system.cpu.branchPred.BTBLookups              2101815                       # Number of BTB lookups
system.cpu.branchPred.RASInCorrect                  6                       # Number of incorrect RAS predictions.
system.cpu.branchPred.condIncorrect             81343                       # Number of conditional branches incorrect
system.cpu.branchPred.condPredicted           3727700                       # Number of conditional branches predicted
system.cpu.branchPred.indirectHits                291                       # Number of indirect target hits.
system.cpu.branchPred.indirectLookups             809                       # Number of indirect predictor lookups.
system.cpu.branchPred.indirectMisses              518                       # Number of indirect misses.
system.cpu.branchPred.lookups                 4477790                       # Number of BP lookups
system.cpu.branchPred.usedRAS                   65343                       # Number of times the RAS was used to get a target.
system.cpu.branchPredindirectMispredicted          171                       # Number of mispredicted indirect branches.
system.cpu.committedInsts                   100000000                       # Number of instructions committed
system.cpu.committedOps                     100196369                       # Number of ops (including micro ops) committed
system.cpu.cpi                               1.679643                       # CPI: cycles per instruction
system.cpu.discardedOps                        190668                       # Number of ops (including micro ops) which were discarded before commit
system.cpu.dtb.accesses                             0                       # DTB accesses
system.cpu.dtb.align_faults                         0                       # Number of TLB faults due to alignment restrictions
system.cpu.dtb.domain_faults                        0                       # Number of TLB faults due to domain restrictions
system.cpu.dtb.flush_entries                        0                       # Number of entries that have been flushed from TLB
system.cpu.dtb.flush_tlb                            0                       # Number of times complete TLB was flushed
system.cpu.dtb.flush_tlb_asid                       0                       # Number of times TLB was flushed by ASID
system.cpu.dtb.flush_tlb_mva                        0                       # Number of times TLB was flushed by MVA
system.cpu.dtb.flush_tlb_mva_asid                   0                       # Number of times TLB was flushed by MVA & ASID
system.cpu.dtb.hits                                 0                       # DTB hits
system.cpu.dtb.inst_accesses                        0                       # ITB inst accesses
system.cpu.dtb.inst_hits                            0                       # ITB inst hits
system.cpu.dtb.inst_misses                          0                       # ITB inst misses
system.cpu.dtb.misses                               0                       # DTB misses
system.cpu.dtb.perms_faults                         0                       # Number of TLB faults due to permissions restrictions
system.cpu.dtb.prefetch_faults                      0                       # Number of TLB faults due to prefetch
system.cpu.dtb.read_accesses                        0                       # DTB read accesses
system.cpu.dtb.read_hits                            0                       # DTB read hits
system.cpu.dtb.read_misses                          0                       # DTB read misses
system.cpu.dtb.stage2_mmu.stage2_tlb.accesses            0                       # DTB accesses
system.cpu.dtb.stage2_mmu.stage2_tlb.align_faults            0                       # Number of TLB faults due to alignment restrictions
system.cpu.dtb.stage2_mmu.stage2_tlb.domain_faults            0                       # Number of TLB faults due to domain restrictions
system.cpu.dtb.stage2_mmu.stage2_tlb.flush_entries            0                       # Number of entries that have been flushed from TLB
system.cpu.dtb.stage2_mmu.stage2_tlb.flush_tlb            0                       # Number of times complete TLB was flushed
system.cpu.dtb.stage2_mmu.stage2_tlb.flush_tlb_asid            0                       # Number of times TLB was flushed by ASID
system.cpu.dtb.stage2_mmu.stage2_tlb.flush_tlb_mva            0                       # Number of times TLB was flushed by MVA
system.cpu.dtb.stage2_mmu.stage2_tlb.flush_tlb_mva_asid            0                       # Number of times TLB was flushed by MVA & ASID
system.cpu.dtb.stage2_mmu.stage2_tlb.hits            0                       # DTB hits
system.cpu.dtb.stage2_mmu.stage2_tlb.inst_accesses            0                       # ITB inst accesses
system.cpu.dtb.stage2_mmu.stage2_tlb.inst_hits            0                       # ITB inst hits
system.cpu.dtb.stage2_mmu.stage2_tlb.inst_misses            0                       # ITB inst misses
system.cpu.dtb.stage2_mmu.stage2_tlb.misses            0                       # DTB misses
system.cpu.dtb.stage2_mmu.stage2_tlb.perms_faults            0                       # Number of TLB faults due to permissions restrictions
system.cpu.dtb.stage2_mmu.stage2_tlb.prefetch_faults            0                       # Number of TLB faults due to prefetch
system.cpu.dtb.stage2_mmu.stage2_tlb.read_accesses            0                       # DTB read accesses
system.cpu.dtb.stage2_mmu.stage2_tlb.read_hits            0                       # DTB read hits
system.cpu.dtb.stage2_mmu.stage2_tlb.read_misses            0                       # DTB read misses
system.cpu.dtb.stage2_mmu.stage2_tlb.walker.walkRequestOrigin_Requested::Data            0                       # Table walker requests started/completed, data/inst
system.cpu.dtb.stage2_mmu.stage2_tlb.walker.walkRequestOrigin_Requested::Inst            0                       # Table walker requests started/completed, data/inst
system.cpu.dtb.stage2_mmu.stage2_tlb.walker.walkRequestOrigin_Requested::total            0                       # Table walker requests started/completed, data/inst
system.cpu.dtb.stage2_mmu.stage2_tlb.walker.walkRequestOrigin_Completed::Data            0                       # Table walker requests started/completed, data/inst
system.cpu.dtb.stage2_mmu.stage2_tlb.walker.walkRequestOrigin_Completed::Inst            0                       # Table walker requests started/completed, data/inst
system.cpu.dtb.stage2_mmu.stage2_tlb.walker.walkRequestOrigin_Completed::total            0                       # Table walker requests started/completed, data/inst
system.cpu.dtb.stage2_mmu.stage2_tlb.walker.walkRequestOrigin::total            0                       # Table walker requests started/completed, data/inst
system.cpu.dtb.stage2_mmu.stage2_tlb.walker.walks            0                       # Table walker walks requested
system.cpu.dtb.stage2_mmu.stage2_tlb.write_accesses            0                       # DTB write accesses
system.cpu.dtb.stage2_mmu.stage2_tlb.write_hits            0                       # DTB write hits
system.cpu.dtb.stage2_mmu.stage2_tlb.write_misses            0                       # DTB write misses
system.cpu.dtb.walker.walkRequestOrigin_Requested::Data            0                       # Table walker requests started/completed, data/inst
system.cpu.dtb.walker.walkRequestOrigin_Requested::Inst            0                       # Table walker requests started/completed, data/inst
system.cpu.dtb.walker.walkRequestOrigin_Requested::total            0                       # Table walker requests started/completed, data/inst
system.cpu.dtb.walker.walkRequestOrigin_Completed::Data            0                       # Table walker requests started/completed, data/inst
system.cpu.dtb.walker.walkRequestOrigin_Completed::Inst            0                       # Table walker requests started/completed, data/inst
system.cpu.dtb.walker.walkRequestOrigin_Completed::total            0                       # Table walker requests started/completed, data/inst
system.cpu.dtb.walker.walkRequestOrigin::total            0                       # Table walker requests started/completed, data/inst
system.cpu.dtb.walker.walks                         0                       # Table walker walks requested
system.cpu.dtb.write_accesses                       0                       # DTB write accesses
system.cpu.dtb.write_hits                           0                       # DTB write hits
system.cpu.dtb.write_misses                         0                       # DTB write misses
system.cpu.fetch2.amo_instructions                  0                       # Number of memory atomic instructions successfully decoded
system.cpu.fetch2.fp_instructions                   0                       # Number of floating point instructions successfully decoded
system.cpu.fetch2.int_instructions           42610183                       # Number of integer instructions successfully decoded
system.cpu.fetch2.load_instructions          43402257                       # Number of memory load instructions successfully decoded
system.cpu.fetch2.store_instructions         11001396                       # Number of memory store instructions successfully decoded
system.cpu.fetch2.vec_instructions                  0                       # Number of SIMD instructions successfully decoded
system.cpu.idleCycles                        35261276                       # Total number of cycles that the object has spent stopped
system.cpu.ipc                               0.595365                       # IPC: instructions per cycle
system.cpu.itb.accesses                             0                       # DTB accesses
system.cpu.itb.align_faults                         0                       # Number of TLB faults due to alignment restrictions
system.cpu.itb.domain_faults                        0                       # Number of TLB faults due to domain restrictions
system.cpu.itb.flush_entries                        0                       # Number of entries that have been flushed from TLB
system.cpu.itb.flush_tlb                            0                       # Number of times complete TLB was flushed
system.cpu.itb.flush_tlb_asid                       0                       # Number of times TLB was flushed by ASID
system.cpu.itb.flush_tlb_mva                        0                       # Number of times TLB was flushed by MVA
system.cpu.itb.flush_tlb_mva_asid                   0                       # Number of times TLB was flushed by MVA & ASID
system.cpu.itb.hits                                 0                       # DTB hits
system.cpu.itb.inst_accesses                        0                       # ITB inst accesses
system.cpu.itb.inst_hits                            0                       # ITB inst hits
system.cpu.itb.inst_misses                          0                       # ITB inst misses
system.cpu.itb.misses                               0                       # DTB misses
system.cpu.itb.perms_faults                         0                       # Number of TLB faults due to permissions restrictions
system.cpu.itb.prefetch_faults                      0                       # Number of TLB faults due to prefetch
system.cpu.itb.read_accesses                        0                       # DTB read accesses
system.cpu.itb.read_hits                            0                       # DTB read hits
system.cpu.itb.read_misses                          0                       # DTB read misses
system.cpu.itb.stage2_mmu.stage2_tlb.accesses            0                       # DTB accesses
system.cpu.itb.stage2_mmu.stage2_tlb.align_faults            0                       # Number of TLB faults due to alignment restrictions
system.cpu.itb.stage2_mmu.stage2_tlb.domain_faults            0                       # Number of TLB faults due to domain restrictions
system.cpu.itb.stage2_mmu.stage2_tlb.flush_entries            0                       # Number of entries that have been flushed from TLB
system.cpu.itb.stage2_mmu.stage2_tlb.flush_tlb            0                       # Number of times complete TLB was flushed
system.cpu.itb.stage2_mmu.stage2_tlb.flush_tlb_asid            0                       # Number of times TLB was flushed by ASID
system.cpu.itb.stage2_mmu.stage2_tlb.flush_tlb_mva            0                       # Number of times TLB was flushed by MVA
system.cpu.itb.stage2_mmu.stage2_tlb.flush_tlb_mva_asid            0                       # Number of times TLB was flushed by MVA & ASID
system.cpu.itb.stage2_mmu.stage2_tlb.hits            0                       # DTB hits
system.cpu.itb.stage2_mmu.stage2_tlb.inst_accesses            0                       # ITB inst accesses
system.cpu.itb.stage2_mmu.stage2_tlb.inst_hits            0                       # ITB inst hits
system.cpu.itb.stage2_mmu.stage2_tlb.inst_misses            0                       # ITB inst misses
system.cpu.itb.stage2_mmu.stage2_tlb.misses            0                       # DTB misses
system.cpu.itb.stage2_mmu.stage2_tlb.perms_faults            0                       # Number of TLB faults due to permissions restrictions
system.cpu.itb.stage2_mmu.stage2_tlb.prefetch_faults            0                       # Number of TLB faults due to prefetch
system.cpu.itb.stage2_mmu.stage2_tlb.read_accesses            0                       # DTB read accesses
system.cpu.itb.stage2_mmu.stage2_tlb.read_hits            0                       # DTB read hits
system.cpu.itb.stage2_mmu.stage2_tlb.read_misses            0                       # DTB read misses
system.cpu.itb.stage2_mmu.stage2_tlb.walker.walkRequestOrigin_Requested::Data            0                       # Table walker requests started/completed, data/inst
system.cpu.itb.stage2_mmu.stage2_tlb.walker.walkRequestOrigin_Requested::Inst            0                       # Table walker requests started/completed, data/inst
system.cpu.itb.stage2_mmu.stage2_tlb.walker.walkRequestOrigin_Requested::total            0                       # Table walker requests started/completed, data/inst
system.cpu.itb.stage2_mmu.stage2_tlb.walker.walkRequestOrigin_Completed::Data            0                       # Table walker requests started/completed, data/inst
system.cpu.itb.stage2_mmu.stage2_tlb.walker.walkRequestOrigin_Completed::Inst            0                       # Table walker requests started/completed, data/inst
system.cpu.itb.stage2_mmu.stage2_tlb.walker.walkRequestOrigin_Completed::total            0                       # Table walker requests started/completed, data/inst
system.cpu.itb.stage2_mmu.stage2_tlb.walker.walkRequestOrigin::total            0                       # Table walker requests started/completed, data/inst
system.cpu.itb.stage2_mmu.stage2_tlb.walker.walks            0                       # Table walker walks requested
system.cpu.itb.stage2_mmu.stage2_tlb.write_accesses            0                       # DTB write accesses
system.cpu.itb.stage2_mmu.stage2_tlb.write_hits            0                       # DTB write hits
system.cpu.itb.stage2_mmu.stage2_tlb.write_misses            0                       # DTB write misses
system.cpu.itb.walker.walkRequestOrigin_Requested::Data            0                       # Table walker requests started/completed, data/inst
system.cpu.itb.walker.walkRequestOrigin_Requested::Inst            0                       # Table walker requests started/completed, data/inst
system.cpu.itb.walker.walkRequestOrigin_Requested::total            0                       # Table walker requests started/completed, data/inst
system.cpu.itb.walker.walkRequestOrigin_Completed::Data            0                       # Table walker requests started/completed, data/inst
system.cpu.itb.walker.walkRequestOrigin_Completed::Inst            0                       # Table walker requests started/completed, data/inst
system.cpu.itb.walker.walkRequestOrigin_Completed::total            0                       # Table walker requests started/completed, data/inst
system.cpu.itb.walker.walkRequestOrigin::total            0                       # Table walker requests started/completed, data/inst
system.cpu.itb.walker.walks                         0                       # Table walker walks requested
system.cpu.itb.write_accesses                       0                       # DTB write accesses
system.cpu.itb.write_hits                           0                       # DTB write hits
system.cpu.itb.write_misses                         0                       # DTB write misses
system.cpu.numCycles                        167964327                       # number of cpu cycles simulated
system.cpu.numFetchSuspends                         0                       # Number of times Execute suspended instruction fetching
system.cpu.numWorkItemsCompleted                    0                       # number of work items this cpu completed
system.cpu.numWorkItemsStarted                      0                       # number of work items this cpu started
system.cpu.op_class_0::No_OpClass                   0      0.00%      0.00% # Class of committed instruction
system.cpu.op_class_0::IntAlu                46531437     46.44%     46.44% # Class of committed instruction
system.cpu.op_class_0::IntMult                  20720      0.02%     46.46% # Class of committed instruction
system.cpu.op_class_0::IntDiv                       0      0.00%     46.46% # Class of committed instruction
system.cpu.op_class_0::FloatAdd                     0      0.00%     46.46% # Class of committed instruction
system.cpu.op_class_0::FloatCmp                     0      0.00%     46.46% # Class of committed instruction
system.cpu.op_class_0::FloatCvt                     0      0.00%     46.46% # Class of committed instruction
system.cpu.op_class_0::FloatMult                    0      0.00%     46.46% # Class of committed instruction
system.cpu.op_class_0::FloatMultAcc                 0      0.00%     46.46% # Class of committed instruction
system.cpu.op_class_0::FloatDiv                     0      0.00%     46.46% # Class of committed instruction
system.cpu.op_class_0::FloatMisc                    0      0.00%     46.46% # Class of committed instruction
system.cpu.op_class_0::FloatSqrt                    0      0.00%     46.46% # Class of committed instruction
system.cpu.op_class_0::SimdAdd                      0      0.00%     46.46% # Class of committed instruction
system.cpu.op_class_0::SimdAddAcc                   0      0.00%     46.46% # Class of committed instruction
system.cpu.op_class_0::SimdAlu                      0      0.00%     46.46% # Class of committed instruction
system.cpu.op_class_0::SimdCmp                      0      0.00%     46.46% # Class of committed instruction
system.cpu.op_class_0::SimdCvt                      0      0.00%     46.46% # Class of committed instruction
system.cpu.op_class_0::SimdMisc                     0      0.00%     46.46% # Class of committed instruction
system.cpu.op_class_0::SimdMult                     0      0.00%     46.46% # Class of committed instruction
system.cpu.op_class_0::SimdMultAcc                  0      0.00%     46.46% # Class of committed instruction
system.cpu.op_class_0::SimdShift                    0      0.00%     46.46% # Class of committed instruction
system.cpu.op_class_0::SimdShiftAcc                 0      0.00%     46.46% # Class of committed instruction
system.cpu.op_class_0::SimdDiv                      0      0.00%     46.46% # Class of committed instruction
system.cpu.op_class_0::SimdSqrt                     0      0.00%     46.46% # Class of committed instruction
system.cpu.op_class_0::SimdFloatAdd                 0      0.00%     46.46% # Class of committed instruction
system.cpu.op_class_0::SimdFloatAlu                 0      0.00%     46.46% # Class of committed instruction
system.cpu.op_class_0::SimdFloatCmp                 0      0.00%     46.46% # Class of committed instruction
system.cpu.op_class_0::SimdFloatCvt                 0      0.00%     46.46% # Class of committed instruction
system.cpu.op_class_0::SimdFloatDiv                 0      0.00%     46.46% # Class of committed instruction
system.cpu.op_class_0::SimdFloatMisc               18      0.00%     46.46% # Class of committed instruction
system.cpu.op_class_0::SimdFloatMult                0      0.00%     46.46% # Class of committed instruction
system.cpu.op_class_0::SimdFloatMultAcc             0      0.00%     46.46% # Class of committed instruction
system.cpu.op_class_0::SimdFloatSqrt                0      0.00%     46.46% # Class of committed instruction
system.cpu.op_class_0::SimdReduceAdd                0      0.00%     46.46% # Class of committed instruction
system.cpu.op_class_0::SimdReduceAlu                0      0.00%     46.46% # Class of committed instruction
system.cpu.op_class_0::SimdReduceCmp                0      0.00%     46.46% # Class of committed instruction
system.cpu.op_class_0::SimdFloatReduceAdd            0      0.00%     46.46% # Class of committed instruction
system.cpu.op_class_0::SimdFloatReduceCmp            0      0.00%     46.46% # Class of committed instruction
system.cpu.op_class_0::SimdAes                      0      0.00%     46.46% # Class of committed instruction
system.cpu.op_class_0::SimdAesMix                   0      0.00%     46.46% # Class of committed instruction
system.cpu.op_class_0::SimdSha1Hash                 0      0.00%     46.46% # Class of committed instruction
system.cpu.op_class_0::SimdSha1Hash2                0      0.00%     46.46% # Class of committed instruction
system.cpu.op_class_0::SimdSha256Hash               0      0.00%     46.46% # Class of committed instruction
system.cpu.op_class_0::SimdSha256Hash2              0      0.00%     46.46% # Class of committed instruction
system.cpu.op_class_0::SimdShaSigma2                0      0.00%     46.46% # Class of committed instruction
system.cpu.op_class_0::SimdShaSigma3                0      0.00%     46.46% # Class of committed instruction
system.cpu.op_class_0::SimdPredAlu                  0      0.00%     46.46% # Class of committed instruction
system.cpu.op_class_0::MemRead               42693580     42.61%     89.07% # Class of committed instruction
system.cpu.op_class_0::MemWrite              10950614     10.93%    100.00% # Class of committed instruction
system.cpu.op_class_0::FloatMemRead                 0      0.00%    100.00% # Class of committed instruction
system.cpu.op_class_0::FloatMemWrite                0      0.00%    100.00% # Class of committed instruction
system.cpu.op_class_0::IprAccess                    0      0.00%    100.00% # Class of committed instruction
system.cpu.op_class_0::InstPrefetch                 0      0.00%    100.00% # Class of committed instruction
system.cpu.op_class_0::total                100196369                       # Class of committed instruction
system.cpu.tickCycles                       132703051                       # Number of cycles that the object actually ticked
system.cpu.workload.numSyscalls                    84                       # Number of system calls
system.membus.snoop_filter.hit_multi_requests            0                       # Number of requests hitting in the snoop filter with multiple (>1) holders of the requested data.
system.membus.snoop_filter.hit_multi_snoops            0                       # Number of snoops hitting in the snoop filter with multiple (>1) holders of the requested data.
system.membus.snoop_filter.hit_single_requests       167628                       # Number of requests hitting in the snoop filter with a single holder of the requested data.
system.membus.snoop_filter.hit_single_snoops            0                       # Number of snoops hitting in the snoop filter with a single holder of the requested data.
system.membus.snoop_filter.tot_requests        368587                       # Total number of requests made to the snoop filter.
system.membus.snoop_filter.tot_snoops               0                       # Total number of snoops made to the snoop filter.
system.tol2bus.snoop_filter.hit_multi_requests          120                       # Number of requests hitting in the snoop filter with multiple (>1) holders of the requested data.
system.tol2bus.snoop_filter.hit_multi_snoops            0                       # Number of snoops hitting in the snoop filter with multiple (>1) holders of the requested data.
system.tol2bus.snoop_filter.hit_single_requests       710692                       # Number of requests hitting in the snoop filter with a single holder of the requested data.
system.tol2bus.snoop_filter.hit_single_snoops          580                       # Number of snoops hitting in the snoop filter with a single holder of the requested data.
system.tol2bus.snoop_filter.tot_requests      1423080                       # Total number of requests made to the snoop filter.
system.tol2bus.snoop_filter.tot_snoops            580                       # Total number of snoops made to the snoop filter.
system.membus.pwrStateResidencyTicks::UNDEFINED  83982163500                       # Cumulative time (in ticks) in various power states
system.membus.trans_dist::ReadResp              64853                       # Transaction distribution
system.membus.trans_dist::WritebackDirty       111053                       # Transaction distribution
system.membus.trans_dist::CleanEvict            56567                       # Transaction distribution
system.membus.trans_dist::ReadExReq            136114                       # Transaction distribution
system.membus.trans_dist::ReadExResp           136113                       # Transaction distribution
system.membus.trans_dist::ReadSharedReq         64853                       # Transaction distribution
system.membus.pkt_count_system.l2.mem_side::system.mem_ctrls.port       569553                       # Packet count per connected master and slave (bytes)
system.membus.pkt_count::total                 569553                       # Packet count per connected master and slave (bytes)
system.membus.pkt_size_system.l2.mem_side::system.mem_ctrls.port     19969216                       # Cumulative packet size per connected master and slave (bytes)
system.membus.pkt_size::total                19969216                       # Cumulative packet size per connected master and slave (bytes)
system.membus.snoops                                0                       # Total snoops (count)
system.membus.snoopTraffic                          0                       # Total snoop traffic (bytes)
system.membus.snoop_fanout::samples            200967                       # Request fanout histogram
system.membus.snoop_fanout::mean                    0                       # Request fanout histogram
system.membus.snoop_fanout::stdev                   0                       # Request fanout histogram
system.membus.snoop_fanout::underflows              0      0.00%      0.00% # Request fanout histogram
system.membus.snoop_fanout::0                  200967    100.00%    100.00% # Request fanout histogram
system.membus.snoop_fanout::1                       0      0.00%    100.00% # Request fanout histogram
system.membus.snoop_fanout::overflows               0      0.00%    100.00% # Request fanout histogram
system.membus.snoop_fanout::min_value               0                       # Request fanout histogram
system.membus.snoop_fanout::max_value               0                       # Request fanout histogram
system.membus.snoop_fanout::total              200967                       # Request fanout histogram
system.membus.respLayer1.occupancy         1082553250                       # Layer occupancy (ticks)
system.membus.respLayer1.utilization              1.3                       # Layer utilization (%)
system.membus.reqLayer0.occupancy           854365000                       # Layer occupancy (ticks)
system.membus.reqLayer0.utilization               1.0                       # Layer utilization (%)
system.tol2bus.pwrStateResidencyTicks::UNDEFINED  83982163500                       # Cumulative time (in ticks) in various power states
system.tol2bus.trans_dist::ReadResp            426009                       # Transaction distribution
system.tol2bus.trans_dist::WritebackDirty       746737                       # Transaction distribution
system.tol2bus.trans_dist::CleanEvict          132153                       # Transaction distribution
system.tol2bus.trans_dist::ReadExReq           286381                       # Transaction distribution
system.tol2bus.trans_dist::ReadExResp          286380                       # Transaction distribution
system.tol2bus.trans_dist::ReadCleanReq           675                       # Transaction distribution
system.tol2bus.trans_dist::ReadSharedReq       425334                       # Transaction distribution
system.tol2bus.pkt_count_system.cpu.icache.mem_side::system.l2.cpu_side         1350                       # Packet count per connected master and slave (bytes)
system.tol2bus.pkt_count_system.cpu.dcache.mem_side::system.l2.cpu_side      2134119                       # Packet count per connected master and slave (bytes)
system.tol2bus.pkt_count::total               2135469                       # Packet count per connected master and slave (bytes)
system.tol2bus.pkt_size_system.cpu.icache.mem_side::system.l2.cpu_side        43200                       # Cumulative packet size per connected master and slave (bytes)
system.tol2bus.pkt_size_system.cpu.dcache.mem_side::system.l2.cpu_side     86233472                       # Cumulative packet size per connected master and slave (bytes)
system.tol2bus.pkt_size::total               86276672                       # Cumulative packet size per connected master and slave (bytes)
system.tol2bus.snoops                          168200                       # Total snoops (count)
system.tol2bus.snoopTraffic                   7107392                       # Total snoop traffic (bytes)
system.tol2bus.snoop_fanout::samples           880590                       # Request fanout histogram
system.tol2bus.snoop_fanout::mean            0.000797                       # Request fanout histogram
system.tol2bus.snoop_fanout::stdev           0.028223                       # Request fanout histogram
system.tol2bus.snoop_fanout::underflows             0      0.00%      0.00% # Request fanout histogram
system.tol2bus.snoop_fanout::0                 879888     99.92%     99.92% # Request fanout histogram
system.tol2bus.snoop_fanout::1                    702      0.08%    100.00% # Request fanout histogram
system.tol2bus.snoop_fanout::2                      0      0.00%    100.00% # Request fanout histogram
system.tol2bus.snoop_fanout::overflows              0      0.00%    100.00% # Request fanout histogram
system.tol2bus.snoop_fanout::min_value              0                       # Request fanout histogram
system.tol2bus.snoop_fanout::max_value              1                       # Request fanout histogram
system.tol2bus.snoop_fanout::total             880590                       # Request fanout histogram
system.tol2bus.reqLayer0.occupancy         1347224000                       # Layer occupancy (ticks)
system.tol2bus.reqLayer0.utilization              1.6                       # Layer utilization (%)
system.tol2bus.respLayer1.occupancy        1067572996                       # Layer occupancy (ticks)
system.tol2bus.respLayer1.utilization             1.3                       # Layer utilization (%)
system.tol2bus.respLayer0.occupancy           1012500                       # Layer occupancy (ticks)
system.tol2bus.respLayer0.utilization             0.0                       # Layer utilization (%)
system.voltage_domain.voltage                       1                       # Voltage in Volts
system.clk_domain.clock                          1000                       # Clock period in ticks
system.l2.pwrStateResidencyTicks::UNDEFINED  83982163500                       # Cumulative time (in ticks) in various power states
system.l2.demand_hits::.cpu.inst                   17                       # number of demand (read+write) hits
system.l2.demand_hits::.cpu.data               511402                       # number of demand (read+write) hits
system.l2.demand_hits::total                   511419                       # number of demand (read+write) hits
system.l2.overall_hits::.cpu.inst                  17                       # number of overall hits
system.l2.overall_hits::.cpu.data              511402                       # number of overall hits
system.l2.overall_hits::total                  511419                       # number of overall hits
system.l2.demand_misses::.cpu.inst                658                       # number of demand (read+write) misses
system.l2.demand_misses::.cpu.data             200313                       # number of demand (read+write) misses
system.l2.demand_misses::total                 200971                       # number of demand (read+write) misses
system.l2.overall_misses::.cpu.inst               658                       # number of overall misses
system.l2.overall_misses::.cpu.data            200313                       # number of overall misses
system.l2.overall_misses::total                200971                       # number of overall misses
system.l2.demand_miss_latency::.cpu.inst     51274500                       # number of demand (read+write) miss cycles
system.l2.demand_miss_latency::.cpu.data  16946663000                       # number of demand (read+write) miss cycles
system.l2.demand_miss_latency::total      16997937500                       # number of demand (read+write) miss cycles
system.l2.overall_miss_latency::.cpu.inst     51274500                       # number of overall miss cycles
system.l2.overall_miss_latency::.cpu.data  16946663000                       # number of overall miss cycles
system.l2.overall_miss_latency::total     16997937500                       # number of overall miss cycles
system.l2.demand_accesses::.cpu.inst              675                       # number of demand (read+write) accesses
system.l2.demand_accesses::.cpu.data           711715                       # number of demand (read+write) accesses
system.l2.demand_accesses::total               712390                       # number of demand (read+write) accesses
system.l2.overall_accesses::.cpu.inst             675                       # number of overall (read+write) accesses
system.l2.overall_accesses::.cpu.data          711715                       # number of overall (read+write) accesses
system.l2.overall_accesses::total              712390                       # number of overall (read+write) accesses
system.l2.demand_miss_rate::.cpu.inst        0.974815                       # miss rate for demand accesses
system.l2.demand_miss_rate::.cpu.data        0.281451                       # miss rate for demand accesses
system.l2.demand_miss_rate::total            0.282108                       # miss rate for demand accesses
system.l2.overall_miss_rate::.cpu.inst       0.974815                       # miss rate for overall accesses
system.l2.overall_miss_rate::.cpu.data       0.281451                       # miss rate for overall accesses
system.l2.overall_miss_rate::total           0.282108                       # miss rate for overall accesses
system.l2.demand_avg_miss_latency::.cpu.inst 77924.772036                       # average overall miss latency
system.l2.demand_avg_miss_latency::.cpu.data 84600.914569                       # average overall miss latency
system.l2.demand_avg_miss_latency::total 84579.056182                       # average overall miss latency
system.l2.overall_avg_miss_latency::.cpu.inst 77924.772036                       # average overall miss latency
system.l2.overall_avg_miss_latency::.cpu.data 84600.914569                       # average overall miss latency
system.l2.overall_avg_miss_latency::total 84579.056182                       # average overall miss latency
system.l2.blocked_cycles::no_mshrs                  0                       # number of cycles access was blocked
system.l2.blocked_cycles::no_targets                0                       # number of cycles access was blocked
system.l2.blocked::no_mshrs                         0                       # number of cycles access was blocked
system.l2.blocked::no_targets                       0                       # number of cycles access was blocked
system.l2.avg_blocked_cycles::no_mshrs            nan                       # average number of cycles each access was blocked
system.l2.avg_blocked_cycles::no_targets          nan                       # average number of cycles each access was blocked
system.l2.writebacks::.writebacks              111053                       # number of writebacks
system.l2.writebacks::total                    111053                       # number of writebacks
system.l2.demand_mshr_hits::.cpu.data               4                       # number of demand (read+write) MSHR hits
system.l2.demand_mshr_hits::total                   4                       # number of demand (read+write) MSHR hits
system.l2.overall_mshr_hits::.cpu.data              4                       # number of overall MSHR hits
system.l2.overall_mshr_hits::total                  4                       # number of overall MSHR hits
system.l2.demand_mshr_misses::.cpu.inst           658                       # number of demand (read+write) MSHR misses
system.l2.demand_mshr_misses::.cpu.data        200309                       # number of demand (read+write) MSHR misses
system.l2.demand_mshr_misses::total            200967                       # number of demand (read+write) MSHR misses
system.l2.overall_mshr_misses::.cpu.inst          658                       # number of overall MSHR misses
system.l2.overall_mshr_misses::.cpu.data       200309                       # number of overall MSHR misses
system.l2.overall_mshr_misses::total           200967                       # number of overall MSHR misses
system.l2.demand_mshr_miss_latency::.cpu.inst     44694500                       # number of demand (read+write) MSHR miss cycles
system.l2.demand_mshr_miss_latency::.cpu.data  14943339000                       # number of demand (read+write) MSHR miss cycles
system.l2.demand_mshr_miss_latency::total  14988033500                       # number of demand (read+write) MSHR miss cycles
system.l2.overall_mshr_miss_latency::.cpu.inst     44694500                       # number of overall MSHR miss cycles
system.l2.overall_mshr_miss_latency::.cpu.data  14943339000                       # number of overall MSHR miss cycles
system.l2.overall_mshr_miss_latency::total  14988033500                       # number of overall MSHR miss cycles
system.l2.demand_mshr_miss_rate::.cpu.inst     0.974815                       # mshr miss rate for demand accesses
system.l2.demand_mshr_miss_rate::.cpu.data     0.281446                       # mshr miss rate for demand accesses
system.l2.demand_mshr_miss_rate::total       0.282103                       # mshr miss rate for demand accesses
system.l2.overall_mshr_miss_rate::.cpu.inst     0.974815                       # mshr miss rate for overall accesses
system.l2.overall_mshr_miss_rate::.cpu.data     0.281446                       # mshr miss rate for overall accesses
system.l2.overall_mshr_miss_rate::total      0.282103                       # mshr miss rate for overall accesses
system.l2.demand_avg_mshr_miss_latency::.cpu.inst 67924.772036                       # average overall mshr miss latency
system.l2.demand_avg_mshr_miss_latency::.cpu.data 74601.435782                       # average overall mshr miss latency
system.l2.demand_avg_mshr_miss_latency::total 74579.575254                       # average overall mshr miss latency
system.l2.overall_avg_mshr_miss_latency::.cpu.inst 67924.772036                       # average overall mshr miss latency
system.l2.overall_avg_mshr_miss_latency::.cpu.data 74601.435782                       # average overall mshr miss latency
system.l2.overall_avg_mshr_miss_latency::total 74579.575254                       # average overall mshr miss latency
system.l2.replacements                         168200                       # number of replacements
system.l2.WritebackDirty_hits::.writebacks       635684                       # number of WritebackDirty hits
system.l2.WritebackDirty_hits::total           635684                       # number of WritebackDirty hits
system.l2.WritebackDirty_accesses::.writebacks       635684                       # number of WritebackDirty accesses(hits+misses)
system.l2.WritebackDirty_accesses::total       635684                       # number of WritebackDirty accesses(hits+misses)
system.l2.ReadExReq_hits::.cpu.data            150267                       # number of ReadExReq hits
system.l2.ReadExReq_hits::total                150267                       # number of ReadExReq hits
system.l2.ReadExReq_misses::.cpu.data          136114                       # number of ReadExReq misses
system.l2.ReadExReq_misses::total              136114                       # number of ReadExReq misses
system.l2.ReadExReq_miss_latency::.cpu.data  11823163500                       # number of ReadExReq miss cycles
system.l2.ReadExReq_miss_latency::total   11823163500                       # number of ReadExReq miss cycles
system.l2.ReadExReq_accesses::.cpu.data        286381                       # number of ReadExReq accesses(hits+misses)
system.l2.ReadExReq_accesses::total            286381                       # number of ReadExReq accesses(hits+misses)
system.l2.ReadExReq_miss_rate::.cpu.data     0.475290                       # miss rate for ReadExReq accesses
system.l2.ReadExReq_miss_rate::total         0.475290                       # miss rate for ReadExReq accesses
system.l2.ReadExReq_avg_miss_latency::.cpu.data 86862.214761                       # average ReadExReq miss latency
system.l2.ReadExReq_avg_miss_latency::total 86862.214761                       # average ReadExReq miss latency
system.l2.ReadExReq_mshr_misses::.cpu.data       136114                       # number of ReadExReq MSHR misses
system.l2.ReadExReq_mshr_misses::total         136114                       # number of ReadExReq MSHR misses
system.l2.ReadExReq_mshr_miss_latency::.cpu.data  10462033500                       # number of ReadExReq MSHR miss cycles
system.l2.ReadExReq_mshr_miss_latency::total  10462033500                       # number of ReadExReq MSHR miss cycles
system.l2.ReadExReq_mshr_miss_rate::.cpu.data     0.475290                       # mshr miss rate for ReadExReq accesses
system.l2.ReadExReq_mshr_miss_rate::total     0.475290                       # mshr miss rate for ReadExReq accesses
system.l2.ReadExReq_avg_mshr_miss_latency::.cpu.data 76862.288229                       # average ReadExReq mshr miss latency
system.l2.ReadExReq_avg_mshr_miss_latency::total 76862.288229                       # average ReadExReq mshr miss latency
system.l2.ReadCleanReq_hits::.cpu.inst             17                       # number of ReadCleanReq hits
system.l2.ReadCleanReq_hits::total                 17                       # number of ReadCleanReq hits
system.l2.ReadCleanReq_misses::.cpu.inst          658                       # number of ReadCleanReq misses
system.l2.ReadCleanReq_misses::total              658                       # number of ReadCleanReq misses
system.l2.ReadCleanReq_miss_latency::.cpu.inst     51274500                       # number of ReadCleanReq miss cycles
system.l2.ReadCleanReq_miss_latency::total     51274500                       # number of ReadCleanReq miss cycles
system.l2.ReadCleanReq_accesses::.cpu.inst          675                       # number of ReadCleanReq accesses(hits+misses)
system.l2.ReadCleanReq_accesses::total            675                       # number of ReadCleanReq accesses(hits+misses)
system.l2.ReadCleanReq_miss_rate::.cpu.inst     0.974815                       # miss rate for ReadCleanReq accesses
system.l2.ReadCleanReq_miss_rate::total      0.974815                       # miss rate for ReadCleanReq accesses
system.l2.ReadCleanReq_avg_miss_latency::.cpu.inst 77924.772036                       # average ReadCleanReq miss latency
system.l2.ReadCleanReq_avg_miss_latency::total 77924.772036                       # average ReadCleanReq miss latency
system.l2.ReadCleanReq_mshr_misses::.cpu.inst          658                       # number of ReadCleanReq MSHR misses
system.l2.ReadCleanReq_mshr_misses::total          658                       # number of ReadCleanReq MSHR misses
system.l2.ReadCleanReq_mshr_miss_latency::.cpu.inst     44694500                       # number of ReadCleanReq MSHR miss cycles
system.l2.ReadCleanReq_mshr_miss_latency::total     44694500                       # number of ReadCleanReq MSHR miss cycles
system.l2.ReadCleanReq_mshr_miss_rate::.cpu.inst     0.974815                       # mshr miss rate for ReadCleanReq accesses
system.l2.ReadCleanReq_mshr_miss_rate::total     0.974815                       # mshr miss rate for ReadCleanReq accesses
system.l2.ReadCleanReq_avg_mshr_miss_latency::.cpu.inst 67924.772036                       # average ReadCleanReq mshr miss latency
system.l2.ReadCleanReq_avg_mshr_miss_latency::total 67924.772036                       # average ReadCleanReq mshr miss latency
system.l2.ReadSharedReq_hits::.cpu.data        361135                       # number of ReadSharedReq hits
system.l2.ReadSharedReq_hits::total            361135                       # number of ReadSharedReq hits
system.l2.ReadSharedReq_misses::.cpu.data        64199                       # number of ReadSharedReq misses
system.l2.ReadSharedReq_misses::total           64199                       # number of ReadSharedReq misses
system.l2.ReadSharedReq_miss_latency::.cpu.data   5123499500                       # number of ReadSharedReq miss cycles
system.l2.ReadSharedReq_miss_latency::total   5123499500                       # number of ReadSharedReq miss cycles
system.l2.ReadSharedReq_accesses::.cpu.data       425334                       # number of ReadSharedReq accesses(hits+misses)
system.l2.ReadSharedReq_accesses::total        425334                       # number of ReadSharedReq accesses(hits+misses)
system.l2.ReadSharedReq_miss_rate::.cpu.data     0.150938                       # miss rate for ReadSharedReq accesses
system.l2.ReadSharedReq_miss_rate::total     0.150938                       # miss rate for ReadSharedReq accesses
system.l2.ReadSharedReq_avg_miss_latency::.cpu.data 79806.531254                       # average ReadSharedReq miss latency
system.l2.ReadSharedReq_avg_miss_latency::total 79806.531254                       # average ReadSharedReq miss latency
system.l2.ReadSharedReq_mshr_hits::.cpu.data            4                       # number of ReadSharedReq MSHR hits
system.l2.ReadSharedReq_mshr_hits::total            4                       # number of ReadSharedReq MSHR hits
system.l2.ReadSharedReq_mshr_misses::.cpu.data        64195                       # number of ReadSharedReq MSHR misses
system.l2.ReadSharedReq_mshr_misses::total        64195                       # number of ReadSharedReq MSHR misses
system.l2.ReadSharedReq_mshr_miss_latency::.cpu.data   4481305500                       # number of ReadSharedReq MSHR miss cycles
system.l2.ReadSharedReq_mshr_miss_latency::total   4481305500                       # number of ReadSharedReq MSHR miss cycles
system.l2.ReadSharedReq_mshr_miss_rate::.cpu.data     0.150928                       # mshr miss rate for ReadSharedReq accesses
system.l2.ReadSharedReq_mshr_miss_rate::total     0.150928                       # mshr miss rate for ReadSharedReq accesses
system.l2.ReadSharedReq_avg_mshr_miss_latency::.cpu.data 69807.703092                       # average ReadSharedReq mshr miss latency
system.l2.ReadSharedReq_avg_mshr_miss_latency::total 69807.703092                       # average ReadSharedReq mshr miss latency
system.l2.tags.pwrStateResidencyTicks::UNDEFINED  83982163500                       # Cumulative time (in ticks) in various power states
system.l2.tags.tagsinuse                 31904.286481                       # Cycle average of tags in use
system.l2.tags.total_refs                     1422955                       # Total number of references to valid blocks.
system.l2.tags.sampled_refs                    200968                       # Sample count of references to valid blocks.
system.l2.tags.avg_refs                      7.080505                       # Average number of references to valid blocks.
system.l2.tags.warmup_cycle                     77000                       # Cycle when the warmup percentage was hit.
system.l2.tags.occ_blocks::.writebacks       0.248429                       # Average occupied blocks per requestor
system.l2.tags.occ_blocks::.cpu.inst        77.570907                       # Average occupied blocks per requestor
system.l2.tags.occ_blocks::.cpu.data     31826.467144                       # Average occupied blocks per requestor
system.l2.tags.occ_percent::.writebacks      0.000008                       # Average percentage of cache occupancy
system.l2.tags.occ_percent::.cpu.inst        0.002367                       # Average percentage of cache occupancy
system.l2.tags.occ_percent::.cpu.data        0.971267                       # Average percentage of cache occupancy
system.l2.tags.occ_percent::total            0.973642                       # Average percentage of cache occupancy
system.l2.tags.occ_task_id_blocks::1024         32768                       # Occupied blocks per task id
system.l2.tags.age_task_id_blocks_1024::0           85                       # Occupied blocks per task id
system.l2.tags.age_task_id_blocks_1024::1          121                       # Occupied blocks per task id
system.l2.tags.age_task_id_blocks_1024::2         1181                       # Occupied blocks per task id
system.l2.tags.age_task_id_blocks_1024::3        15715                       # Occupied blocks per task id
system.l2.tags.age_task_id_blocks_1024::4        15666                       # Occupied blocks per task id
system.l2.tags.occ_task_id_percent::1024            1                       # Percentage of cache occupancy per task id
system.l2.tags.tag_accesses                  11584648                       # Number of tag accesses
system.l2.tags.data_accesses                 11584648                       # Number of data accesses
system.cpu_voltage_domain.voltage                   1                       # Voltage in Volts
system.mem_ctrls.pwrStateResidencyTicks::UNDEFINED  83982163500                       # Cumulative time (in ticks) in various power states
system.mem_ctrls.bytes_read::.cpu.inst          42112                       # Number of bytes read from this memory
system.mem_ctrls.bytes_read::.cpu.data       12819776                       # Number of bytes read from this memory
system.mem_ctrls.bytes_read::total           12861888                       # Number of bytes read from this memory
system.mem_ctrls.bytes_inst_read::.cpu.inst        42112                       # Number of instructions bytes read from this memory
system.mem_ctrls.bytes_inst_read::total         42112                       # Number of instructions bytes read from this memory
system.mem_ctrls.bytes_written::.writebacks      7107392                       # Number of bytes written to this memory
system.mem_ctrls.bytes_written::total         7107392                       # Number of bytes written to this memory
system.mem_ctrls.num_reads::.cpu.inst             658                       # Number of read requests responded to by this memory
system.mem_ctrls.num_reads::.cpu.data          200309                       # Number of read requests responded to by this memory
system.mem_ctrls.num_reads::total              200967                       # Number of read requests responded to by this memory
system.mem_ctrls.num_writes::.writebacks       111053                       # Number of write requests responded to by this memory
system.mem_ctrls.num_writes::total             111053                       # Number of write requests responded to by this memory
system.mem_ctrls.bw_read::.cpu.inst            501440                       # Total read bandwidth from this memory (bytes/s)
system.mem_ctrls.bw_read::.cpu.data         152648794                       # Total read bandwidth from this memory (bytes/s)
system.mem_ctrls.bw_read::total             153150234                       # Total read bandwidth from this memory (bytes/s)
system.mem_ctrls.bw_inst_read::.cpu.inst       501440                       # Instruction read bandwidth from this memory (bytes/s)
system.mem_ctrls.bw_inst_read::total           501440                       # Instruction read bandwidth from this memory (bytes/s)
system.mem_ctrls.bw_write::.writebacks       84629780                       # Write bandwidth from this memory (bytes/s)
system.mem_ctrls.bw_write::total             84629780                       # Write bandwidth from this memory (bytes/s)
system.mem_ctrls.bw_total::.writebacks       84629780                       # Total bandwidth to/from this memory (bytes/s)
system.mem_ctrls.bw_total::.cpu.inst           501440                       # Total bandwidth to/from this memory (bytes/s)
system.mem_ctrls.bw_total::.cpu.data        152648794                       # Total bandwidth to/from this memory (bytes/s)
system.mem_ctrls.bw_total::total            237780014                       # Total bandwidth to/from this memory (bytes/s)
system.mem_ctrls.avgPriority_.writebacks::samples    111053.00                       # Average QoS priority value for accepted requests
system.mem_ctrls.avgPriority_.cpu.inst::samples       658.00                       # Average QoS priority value for accepted requests
system.mem_ctrls.avgPriority_.cpu.data::samples    200269.00                       # Average QoS priority value for accepted requests
system.mem_ctrls.priorityMinLatency      0.000000018750                       # per QoS priority minimum request to response latency (s)
system.mem_ctrls.priorityMaxLatency      0.002994090500                       # per QoS priority maximum request to response latency (s)
system.mem_ctrls.numReadWriteTurnArounds         6642                       # Number of turnarounds from READ to WRITE
system.mem_ctrls.numWriteReadTurnArounds         6642                       # Number of turnarounds from WRITE to READ
system.mem_ctrls.numStayReadState              524487                       # Number of times bus staying in READ state
system.mem_ctrls.numStayWriteState             104517                       # Number of times bus staying in WRITE state
system.mem_ctrls.readReqs                      200967                       # Number of read requests accepted
system.mem_ctrls.writeReqs                     111053                       # Number of write requests accepted
system.mem_ctrls.readBursts                    200967                       # Number of DRAM read bursts, including those serviced by the write queue
system.mem_ctrls.writeBursts                   111053                       # Number of DRAM write bursts, including those merged in the write queue
system.mem_ctrls.servicedByWrQ                     40                       # Number of DRAM read bursts serviced by the write queue
system.mem_ctrls.mergedWrBursts                     0                       # Number of DRAM write bursts merged with an existing one
system.mem_ctrls.neitherReadNorWriteReqs            0                       # Number of requests that are neither read nor write
system.mem_ctrls.perBankRdBursts::0             12825                       # Per bank write bursts
system.mem_ctrls.perBankRdBursts::1             12744                       # Per bank write bursts
system.mem_ctrls.perBankRdBursts::2             12821                       # Per bank write bursts
system.mem_ctrls.perBankRdBursts::3             12533                       # Per bank write bursts
system.mem_ctrls.perBankRdBursts::4             12513                       # Per bank write bursts
system.mem_ctrls.perBankRdBursts::5             12342                       # Per bank write bursts
system.mem_ctrls.perBankRdBursts::6             12295                       # Per bank write bursts
system.mem_ctrls.perBankRdBursts::7             12466                       # Per bank write bursts
system.mem_ctrls.perBankRdBursts::8             12452                       # Per bank write bursts
system.mem_ctrls.perBankRdBursts::9             12397                       # Per bank write bursts
system.mem_ctrls.perBankRdBursts::10            12450                       # Per bank write bursts
system.mem_ctrls.perBankRdBursts::11            12467                       # Per bank write bursts
system.mem_ctrls.perBankRdBursts::12            12637                       # Per bank write bursts
system.mem_ctrls.perBankRdBursts::13            12709                       # Per bank write bursts
system.mem_ctrls.perBankRdBursts::14            12665                       # Per bank write bursts
system.mem_ctrls.perBankRdBursts::15            12611                       # Per bank write bursts
system.mem_ctrls.perBankWrBursts::0              7122                       # Per bank write bursts
system.mem_ctrls.perBankWrBursts::1              7133                       # Per bank write bursts
system.mem_ctrls.perBankWrBursts::2              7160                       # Per bank write bursts
system.mem_ctrls.perBankWrBursts::3              6976                       # Per bank write bursts
system.mem_ctrls.perBankWrBursts::4              6977                       # Per bank write bursts
system.mem_ctrls.perBankWrBursts::5              6931                       # Per bank write bursts
system.mem_ctrls.perBankWrBursts::6              6824                       # Per bank write bursts
system.mem_ctrls.perBankWrBursts::7              6801                       # Per bank write bursts
system.mem_ctrls.perBankWrBursts::8              6794                       # Per bank write bursts
system.mem_ctrls.perBankWrBursts::9              6769                       # Per bank write bursts
system.mem_ctrls.perBankWrBursts::10             6862                       # Per bank write bursts
system.mem_ctrls.perBankWrBursts::11             6810                       # Per bank write bursts
system.mem_ctrls.perBankWrBursts::12             6897                       # Per bank write bursts
system.mem_ctrls.perBankWrBursts::13             6991                       # Per bank write bursts
system.mem_ctrls.perBankWrBursts::14             7008                       # Per bank write bursts
system.mem_ctrls.perBankWrBursts::15             6967                       # Per bank write bursts
system.mem_ctrls.avgRdQLen                       1.08                       # Average read queue length when enqueuing
system.mem_ctrls.avgWrQLen                      24.65                       # Average write queue length when enqueuing
system.mem_ctrls.totQLat                   2929216000                       # Total ticks spent queuing
system.mem_ctrls.totBusLat                 1004635000                       # Total ticks spent in databus transfers
system.mem_ctrls.totMemAccLat              6696597250                       # Total ticks spent from burst creation until serviced by the DRAM
system.mem_ctrls.avgQLat                     14578.51                       # Average queueing delay per DRAM burst
system.mem_ctrls.avgBusLat                    5000.00                       # Average bus latency per DRAM burst
system.mem_ctrls.avgMemAccLat                33328.51                       # Average memory access latency per DRAM burst
system.mem_ctrls.numRdRetry                         0                       # Number of times read queue was full causing retry
system.mem_ctrls.numWrRetry                         0                       # Number of times write queue was full causing retry
system.mem_ctrls.readRowHits                   137887                       # Number of row buffer hits during reads
system.mem_ctrls.writeRowHits                   69752                       # Number of row buffer hits during writes
system.mem_ctrls.readRowHitRate                 68.63                       # Row buffer hit rate for reads
system.mem_ctrls.writeRowHitRate                62.81                       # Row buffer hit rate for writes
system.mem_ctrls.readPktSize::0                     0                       # Read request sizes (log2)
system.mem_ctrls.readPktSize::1                     0                       # Read request sizes (log2)
system.mem_ctrls.readPktSize::2                     0                       # Read request sizes (log2)
system.mem_ctrls.readPktSize::3                     0                       # Read request sizes (log2)
system.mem_ctrls.readPktSize::4                     0                       # Read request sizes (log2)
system.mem_ctrls.readPktSize::5                     0                       # Read request sizes (log2)
system.mem_ctrls.readPktSize::6                200967                       # Read request sizes (log2)
system.mem_ctrls.writePktSize::0                    0                       # Write request sizes (log2)
system.mem_ctrls.writePktSize::1                    0                       # Write request sizes (log2)
system.mem_ctrls.writePktSize::2                    0                       # Write request sizes (log2)
system.mem_ctrls.writePktSize::3                    0                       # Write request sizes (log2)
system.mem_ctrls.writePktSize::4                    0                       # Write request sizes (log2)
system.mem_ctrls.writePktSize::5                    0                       # Write request sizes (log2)
system.mem_ctrls.writePktSize::6               111053                       # Write request sizes (log2)
system.mem_ctrls.rdQLenPdf::0                  139647                       # What read queue length does an incoming req see
system.mem_ctrls.rdQLenPdf::1                   58622                       # What read queue length does an incoming req see
system.mem_ctrls.rdQLenPdf::2                    2365                       # What read queue length does an incoming req see
system.mem_ctrls.rdQLenPdf::3                     292                       # What read queue length does an incoming req see
system.mem_ctrls.rdQLenPdf::4                       1                       # What read queue length does an incoming req see
system.mem_ctrls.rdQLenPdf::5                       0                       # What read queue length does an incoming req see
system.mem_ctrls.rdQLenPdf::6                       0                       # What read queue length does an incoming req see
system.mem_ctrls.rdQLenPdf::7                       0                       # What read queue length does an incoming req see
system.mem_ctrls.rdQLenPdf::8                       0                       # What read queue length does an incoming req see
system.mem_ctrls.rdQLenPdf::9                       0                       # What read queue length does an incoming req see
system.mem_ctrls.rdQLenPdf::10                      0                       # What read queue length does an incoming req see
system.mem_ctrls.rdQLenPdf::11                      0                       # What read queue length does an incoming req see
system.mem_ctrls.rdQLenPdf::12                      0                       # What read queue length does an incoming req see
system.mem_ctrls.rdQLenPdf::13                      0                       # What read queue length does an incoming req see
system.mem_ctrls.rdQLenPdf::14                      0                       # What read queue length does an incoming req see
system.mem_ctrls.rdQLenPdf::15                      0                       # What read queue length does an incoming req see
system.mem_ctrls.rdQLenPdf::16                      0                       # What read queue length does an incoming req see
system.mem_ctrls.rdQLenPdf::17                      0                       # What read queue length does an incoming req see
system.mem_ctrls.rdQLenPdf::18                      0                       # What read queue length does an incoming req see
system.mem_ctrls.rdQLenPdf::19                      0                       # What read queue length does an incoming req see
system.mem_ctrls.rdQLenPdf::20                      0                       # What read queue length does an incoming req see
system.mem_ctrls.rdQLenPdf::21                      0                       # What read queue length does an incoming req see
system.mem_ctrls.rdQLenPdf::22                      0                       # What read queue length does an incoming req see
system.mem_ctrls.rdQLenPdf::23                      0                       # What read queue length does an incoming req see
system.mem_ctrls.rdQLenPdf::24                      0                       # What read queue length does an incoming req see
system.mem_ctrls.rdQLenPdf::25                      0                       # What read queue length does an incoming req see
system.mem_ctrls.rdQLenPdf::26                      0                       # What read queue length does an incoming req see
system.mem_ctrls.rdQLenPdf::27                      0                       # What read queue length does an incoming req see
system.mem_ctrls.rdQLenPdf::28                      0                       # What read queue length does an incoming req see
system.mem_ctrls.rdQLenPdf::29                      0                       # What read queue length does an incoming req see
system.mem_ctrls.rdQLenPdf::30                      0                       # What read queue length does an incoming req see
system.mem_ctrls.rdQLenPdf::31                      0                       # What read queue length does an incoming req see
system.mem_ctrls.wrQLenPdf::0                       1                       # What write queue length does an incoming req see
system.mem_ctrls.wrQLenPdf::1                       1                       # What write queue length does an incoming req see
system.mem_ctrls.wrQLenPdf::2                       1                       # What write queue length does an incoming req see
system.mem_ctrls.wrQLenPdf::3                       1                       # What write queue length does an incoming req see
system.mem_ctrls.wrQLenPdf::4                       1                       # What write queue length does an incoming req see
system.mem_ctrls.wrQLenPdf::5                       1                       # What write queue length does an incoming req see
system.mem_ctrls.wrQLenPdf::6                       1                       # What write queue length does an incoming req see
system.mem_ctrls.wrQLenPdf::7                       1                       # What write queue length does an incoming req see
system.mem_ctrls.wrQLenPdf::8                       1                       # What write queue length does an incoming req see
system.mem_ctrls.wrQLenPdf::9                       1                       # What write queue length does an incoming req see
system.mem_ctrls.wrQLenPdf::10                      1                       # What write queue length does an incoming req see
system.mem_ctrls.wrQLenPdf::11                      1                       # What write queue length does an incoming req see
system.mem_ctrls.wrQLenPdf::12                      1                       # What write queue length does an incoming req see
system.mem_ctrls.wrQLenPdf::13                      1                       # What write queue length does an incoming req see
system.mem_ctrls.wrQLenPdf::14                      1                       # What write queue length does an incoming req see
system.mem_ctrls.wrQLenPdf::15                   2241                       # What write queue length does an incoming req see
system.mem_ctrls.wrQLenPdf::16                   2275                       # What write queue length does an incoming req see
system.mem_ctrls.wrQLenPdf::17                   5905                       # What write queue length does an incoming req see
system.mem_ctrls.wrQLenPdf::18                   6676                       # What write queue length does an incoming req see
system.mem_ctrls.wrQLenPdf::19                   6698                       # What write queue length does an incoming req see
system.mem_ctrls.wrQLenPdf::20                   6757                       # What write queue length does an incoming req see
system.mem_ctrls.wrQLenPdf::21                   6687                       # What write queue length does an incoming req see
system.mem_ctrls.wrQLenPdf::22                   6716                       # What write queue length does an incoming req see
system.mem_ctrls.wrQLenPdf::23                   6716                       # What write queue length does an incoming req see
system.mem_ctrls.wrQLenPdf::24                   6777                       # What write queue length does an incoming req see
system.mem_ctrls.wrQLenPdf::25                   6757                       # What write queue length does an incoming req see
system.mem_ctrls.wrQLenPdf::26                   6771                       # What write queue length does an incoming req see
system.mem_ctrls.wrQLenPdf::27                   6675                       # What write queue length does an incoming req see
system.mem_ctrls.wrQLenPdf::28                   6708                       # What write queue length does an incoming req see
system.mem_ctrls.wrQLenPdf::29                   6697                       # What write queue length does an incoming req see
system.mem_ctrls.wrQLenPdf::30                   6663                       # What write queue length does an incoming req see
system.mem_ctrls.wrQLenPdf::31                   6665                       # What write queue length does an incoming req see
system.mem_ctrls.wrQLenPdf::32                   6645                       # What write queue length does an incoming req see
system.mem_ctrls.wrQLenPdf::33                      9                       # What write queue length does an incoming req see
system.mem_ctrls.wrQLenPdf::34                      0                       # What write queue length does an incoming req see
system.mem_ctrls.wrQLenPdf::35                      0                       # What write queue length does an incoming req see
system.mem_ctrls.wrQLenPdf::36                      0                       # What write queue length does an incoming req see
system.mem_ctrls.wrQLenPdf::37                      0                       # What write queue length does an incoming req see
system.mem_ctrls.wrQLenPdf::38                      0                       # What write queue length does an incoming req see
system.mem_ctrls.wrQLenPdf::39                      0                       # What write queue length does an incoming req see
system.mem_ctrls.wrQLenPdf::40                      0                       # What write queue length does an incoming req see
system.mem_ctrls.wrQLenPdf::41                      0                       # What write queue length does an incoming req see
system.mem_ctrls.wrQLenPdf::42                      0                       # What write queue length does an incoming req see
system.mem_ctrls.wrQLenPdf::43                      0                       # What write queue length does an incoming req see
system.mem_ctrls.wrQLenPdf::44                      0                       # What write queue length does an incoming req see
system.mem_ctrls.wrQLenPdf::45                      0                       # What write queue length does an incoming req see
system.mem_ctrls.wrQLenPdf::46                      0                       # What write queue length does an incoming req see
system.mem_ctrls.wrQLenPdf::47                      0                       # What write queue length does an incoming req see
system.mem_ctrls.wrQLenPdf::48                      0                       # What write queue length does an incoming req see
system.mem_ctrls.wrQLenPdf::49                      0                       # What write queue length does an incoming req see
system.mem_ctrls.wrQLenPdf::50                      0                       # What write queue length does an incoming req see
system.mem_ctrls.wrQLenPdf::51                      0                       # What write queue length does an incoming req see
system.mem_ctrls.wrQLenPdf::52                      0                       # What write queue length does an incoming req see
system.mem_ctrls.wrQLenPdf::53                      0                       # What write queue length does an incoming req see
system.mem_ctrls.wrQLenPdf::54                      0                       # What write queue length does an incoming req see
system.mem_ctrls.wrQLenPdf::55                      0                       # What write queue length does an incoming req see
system.mem_ctrls.wrQLenPdf::56                      0                       # What write queue length does an incoming req see
system.mem_ctrls.wrQLenPdf::57                      0                       # What write queue length does an incoming req see
system.mem_ctrls.wrQLenPdf::58                      0                       # What write queue length does an incoming req see
system.mem_ctrls.wrQLenPdf::59                      0                       # What write queue length does an incoming req see
system.mem_ctrls.wrQLenPdf::60                      0                       # What write queue length does an incoming req see
system.mem_ctrls.wrQLenPdf::61                      0                       # What write queue length does an incoming req see
system.mem_ctrls.wrQLenPdf::62                      0                       # What write queue length does an incoming req see
system.mem_ctrls.wrQLenPdf::63                      0                       # What write queue length does an incoming req see
system.mem_ctrls.bytesPerActivate::samples       104295                       # Bytes accessed per row activation
system.mem_ctrls.bytesPerActivate::mean    191.415811                       # Bytes accessed per row activation
system.mem_ctrls.bytesPerActivate::gmean   111.472534                       # Bytes accessed per row activation
system.mem_ctrls.bytesPerActivate::stdev   256.355004                       # Bytes accessed per row activation
system.mem_ctrls.bytesPerActivate::0-127        69216     66.37%     66.37% # Bytes accessed per row activation
system.mem_ctrls.bytesPerActivate::128-255        13849     13.28%     79.64% # Bytes accessed per row activation
system.mem_ctrls.bytesPerActivate::256-383         2502      2.40%     82.04% # Bytes accessed per row activation
system.mem_ctrls.bytesPerActivate::384-511         1482      1.42%     83.46% # Bytes accessed per row activation
system.mem_ctrls.bytesPerActivate::512-639         9726      9.33%     92.79% # Bytes accessed per row activation
system.mem_ctrls.bytesPerActivate::640-767          981      0.94%     93.73% # Bytes accessed per row activation
system.mem_ctrls.bytesPerActivate::768-895          512      0.49%     94.22% # Bytes accessed per row activation
system.mem_ctrls.bytesPerActivate::896-1023          353      0.34%     94.56% # Bytes accessed per row activation
system.mem_ctrls.bytesPerActivate::1024-1151         5674      5.44%    100.00% # Bytes accessed per row activation
system.mem_ctrls.bytesPerActivate::total       104295                       # Bytes accessed per row activation
system.mem_ctrls.rdPerTurnAround::samples         6642                       # Reads before turning the bus around for writes
system.mem_ctrls.rdPerTurnAround::mean      30.248118                       # Reads before turning the bus around for writes
system.mem_ctrls.rdPerTurnAround::gmean     23.752905                       # Reads before turning the bus around for writes
system.mem_ctrls.rdPerTurnAround::stdev     52.401611                       # Reads before turning the bus around for writes
system.mem_ctrls.rdPerTurnAround::0-127          6480     97.56%     97.56% # Reads before turning the bus around for writes
system.mem_ctrls.rdPerTurnAround::128-255           30      0.45%     98.01% # Reads before turning the bus around for writes
system.mem_ctrls.rdPerTurnAround::256-383          129      1.94%     99.95% # Reads before turning the bus around for writes
system.mem_ctrls.rdPerTurnAround::512-639            1      0.02%     99.97% # Reads before turning the bus around for writes
system.mem_ctrls.rdPerTurnAround::1664-1791            1      0.02%     99.98% # Reads before turning the bus around for writes
system.mem_ctrls.rdPerTurnAround::2432-2559            1      0.02%    100.00% # Reads before turning the bus around for writes
system.mem_ctrls.rdPerTurnAround::total          6642                       # Reads before turning the bus around for writes
system.mem_ctrls.wrPerTurnAround::samples         6642                       # Writes before turning the bus around for reads
system.mem_ctrls.wrPerTurnAround::mean      16.715146                       # Writes before turning the bus around for reads
system.mem_ctrls.wrPerTurnAround::gmean     16.685535                       # Writes before turning the bus around for reads
system.mem_ctrls.wrPerTurnAround::stdev      1.010937                       # Writes before turning the bus around for reads
system.mem_ctrls.wrPerTurnAround::16             4360     65.64%     65.64% # Writes before turning the bus around for reads
system.mem_ctrls.wrPerTurnAround::17               31      0.47%     66.11% # Writes before turning the bus around for reads
system.mem_ctrls.wrPerTurnAround::18             2059     31.00%     97.11% # Writes before turning the bus around for reads
[...]
system.cpu.icache.ReadReq_mshr_misses::.cpu.inst          675                       # number of ReadReq MSHR misses
system.cpu.icache.ReadReq_mshr_misses::total          675                       # number of ReadReq MSHR misses
system.cpu.icache.ReadReq_mshr_miss_latency::.cpu.inst     52484000                       # number of ReadReq MSHR miss cycles
system.cpu.icache.ReadReq_mshr_miss_latency::total     52484000                       # number of ReadReq MSHR miss cycles
system.cpu.icache.ReadReq_mshr_miss_rate::.cpu.inst     0.000070                       # mshr miss rate for ReadReq accesses
system.cpu.icache.ReadReq_mshr_miss_rate::total     0.000070                       # mshr miss rate for ReadReq accesses
system.cpu.icache.ReadReq_avg_mshr_miss_latency::.cpu.inst 77754.074074                       # average ReadReq mshr miss latency
system.cpu.icache.ReadReq_avg_mshr_miss_latency::total 77754.074074                       # average ReadReq mshr miss latency
system.cpu.icache.tags.pwrStateResidencyTicks::UNDEFINED  83982163500                       # Cumulative time (in ticks) in various power states
system.cpu.icache.tags.tagsinuse           546.361997                       # Cycle average of tags in use
system.cpu.icache.tags.total_refs             9663458                       # Total number of references to valid blocks.
system.cpu.icache.tags.sampled_refs               675                       # Sample count of references to valid blocks.
system.cpu.icache.tags.avg_refs          14316.234074                       # Average number of references to valid blocks.
system.cpu.icache.tags.warmup_cycle             87500                       # Cycle when the warmup percentage was hit.
system.cpu.icache.tags.occ_blocks::.cpu.inst   546.361997                       # Average occupied blocks per requestor
system.cpu.icache.tags.occ_percent::.cpu.inst     0.266778                       # Average percentage of cache occupancy
system.cpu.icache.tags.occ_percent::total     0.266778                       # Average percentage of cache occupancy
system.cpu.icache.tags.occ_task_id_blocks::1024          675                       # Occupied blocks per task id
system.cpu.icache.tags.age_task_id_blocks_1024::3          106                       # Occupied blocks per task id
system.cpu.icache.tags.age_task_id_blocks_1024::4          569                       # Occupied blocks per task id
system.cpu.icache.tags.occ_task_id_percent::1024     0.329590                       # Percentage of cache occupancy per task id
system.cpu.icache.tags.tag_accesses          77308339                       # Number of tag accesses
system.cpu.icache.tags.data_accesses         77308339                       # Number of data accesses
system.cpu.dtb.walker.pwrStateResidencyTicks::UNDEFINED  83982163500                       # Cumulative time (in ticks) in various power states
system.cpu.dtb.stage2_mmu.stage2_tlb.walker.pwrStateResidencyTicks::UNDEFINED  83982163500                       # Cumulative time (in ticks) in various power states
system.cpu.dcache.pwrStateResidencyTicks::UNDEFINED  83982163500                       # Cumulative time (in ticks) in various power states
system.cpu.dcache.demand_hits::.cpu.data     51305692                       # number of demand (read+write) hits
system.cpu.dcache.demand_hits::total         51305692                       # number of demand (read+write) hits
system.cpu.dcache.overall_hits::.cpu.data     51306200                       # number of overall hits
system.cpu.dcache.overall_hits::total        51306200                       # number of overall hits
system.cpu.dcache.demand_misses::.cpu.data       762860                       # number of demand (read+write) misses
system.cpu.dcache.demand_misses::total         762860                       # number of demand (read+write) misses
system.cpu.dcache.overall_misses::.cpu.data       770771                       # number of overall misses
system.cpu.dcache.overall_misses::total        770771                       # number of overall misses
system.cpu.dcache.demand_miss_latency::.cpu.data  25024777494                       # number of demand (read+write) miss cycles
system.cpu.dcache.demand_miss_latency::total  25024777494                       # number of demand (read+write) miss cycles
system.cpu.dcache.overall_miss_latency::.cpu.data  25024777494                       # number of overall miss cycles
system.cpu.dcache.overall_miss_latency::total  25024777494                       # number of overall miss cycles
system.cpu.dcache.demand_accesses::.cpu.data     52068552                       # number of demand (read+write) accesses
system.cpu.dcache.demand_accesses::total     52068552                       # number of demand (read+write) accesses
system.cpu.dcache.overall_accesses::.cpu.data     52076971                       # number of overall (read+write) accesses
system.cpu.dcache.overall_accesses::total     52076971                       # number of overall (read+write) accesses
system.cpu.dcache.demand_miss_rate::.cpu.data     0.014651                       # miss rate for demand accesses
system.cpu.dcache.demand_miss_rate::total     0.014651                       # miss rate for demand accesses
system.cpu.dcache.overall_miss_rate::.cpu.data     0.014801                       # miss rate for overall accesses
system.cpu.dcache.overall_miss_rate::total     0.014801                       # miss rate for overall accesses
system.cpu.dcache.demand_avg_miss_latency::.cpu.data 32803.892581                       # average overall miss latency
system.cpu.dcache.demand_avg_miss_latency::total 32803.892581                       # average overall miss latency
system.cpu.dcache.overall_avg_miss_latency::.cpu.data 32467.201664                       # average overall miss latency
system.cpu.dcache.overall_avg_miss_latency::total 32467.201664                       # average overall miss latency
system.cpu.dcache.blocked_cycles::no_mshrs       202906                       # number of cycles access was blocked
system.cpu.dcache.blocked_cycles::no_targets            0                       # number of cycles access was blocked
system.cpu.dcache.blocked::no_mshrs              3265                       # number of cycles access was blocked
system.cpu.dcache.blocked::no_targets               0                       # number of cycles access was blocked
system.cpu.dcache.avg_blocked_cycles::no_mshrs    62.145789                       # average number of cycles each access was blocked
system.cpu.dcache.avg_blocked_cycles::no_targets          nan                       # average number of cycles each access was blocked
system.cpu.dcache.writebacks::.writebacks       635684                       # number of writebacks
system.cpu.dcache.writebacks::total            635684                       # number of writebacks
system.cpu.dcache.demand_mshr_hits::.cpu.data        59050                       # number of demand (read+write) MSHR hits
system.cpu.dcache.demand_mshr_hits::total        59050                       # number of demand (read+write) MSHR hits
system.cpu.dcache.overall_mshr_hits::.cpu.data        59050                       # number of overall MSHR hits
system.cpu.dcache.overall_mshr_hits::total        59050                       # number of overall MSHR hits
system.cpu.dcache.demand_mshr_misses::.cpu.data       703810                       # number of demand (read+write) MSHR misses
system.cpu.dcache.demand_mshr_misses::total       703810                       # number of demand (read+write) MSHR misses
system.cpu.dcache.overall_mshr_misses::.cpu.data       711715                       # number of overall MSHR misses
system.cpu.dcache.overall_mshr_misses::total       711715                       # number of overall MSHR misses
system.cpu.dcache.demand_mshr_miss_latency::.cpu.data  22714895000                       # number of demand (read+write) MSHR miss cycles
system.cpu.dcache.demand_mshr_miss_latency::total  22714895000                       # number of demand (read+write) MSHR miss cycles
system.cpu.dcache.overall_mshr_miss_latency::.cpu.data  23388744499                       # number of overall MSHR miss cycles
system.cpu.dcache.overall_mshr_miss_latency::total  23388744499                       # number of overall MSHR miss cycles
system.cpu.dcache.demand_mshr_miss_rate::.cpu.data     0.013517                       # mshr miss rate for demand accesses
system.cpu.dcache.demand_mshr_miss_rate::total     0.013517                       # mshr miss rate for demand accesses
system.cpu.dcache.overall_mshr_miss_rate::.cpu.data     0.013667                       # mshr miss rate for overall accesses
system.cpu.dcache.overall_mshr_miss_rate::total     0.013667                       # mshr miss rate for overall accesses
system.cpu.dcache.demand_avg_mshr_miss_latency::.cpu.data 32274.186215                       # average overall mshr miss latency
system.cpu.dcache.demand_avg_mshr_miss_latency::total 32274.186215                       # average overall mshr miss latency
system.cpu.dcache.overall_avg_mshr_miss_latency::.cpu.data 32862.514488                       # average overall mshr miss latency
system.cpu.dcache.overall_avg_mshr_miss_latency::total 32862.514488                       # average overall mshr miss latency
system.cpu.dcache.replacements                 710690                       # number of replacements
system.cpu.dcache.ReadReq_hits::.cpu.data     40700406                       # number of ReadReq hits
system.cpu.dcache.ReadReq_hits::total        40700406                       # number of ReadReq hits
system.cpu.dcache.ReadReq_misses::.cpu.data       418055                       # number of ReadReq misses
system.cpu.dcache.ReadReq_misses::total        418055                       # number of ReadReq misses
system.cpu.dcache.ReadReq_miss_latency::.cpu.data   9326699500                       # number of ReadReq miss cycles
system.cpu.dcache.ReadReq_miss_latency::total   9326699500                       # number of ReadReq miss cycles
system.cpu.dcache.ReadReq_accesses::.cpu.data     41118461                       # number of ReadReq accesses(hits+misses)
system.cpu.dcache.ReadReq_accesses::total     41118461                       # number of ReadReq accesses(hits+misses)
system.cpu.dcache.ReadReq_miss_rate::.cpu.data     0.010167                       # miss rate for ReadReq accesses
system.cpu.dcache.ReadReq_miss_rate::total     0.010167                       # miss rate for ReadReq accesses
system.cpu.dcache.ReadReq_avg_miss_latency::.cpu.data 22309.742737                       # average ReadReq miss latency
system.cpu.dcache.ReadReq_avg_miss_latency::total 22309.742737                       # average ReadReq miss latency
system.cpu.dcache.ReadReq_mshr_hits::.cpu.data          626                       # number of ReadReq MSHR hits
system.cpu.dcache.ReadReq_mshr_hits::total          626                       # number of ReadReq MSHR hits
system.cpu.dcache.ReadReq_mshr_misses::.cpu.data       417429                       # number of ReadReq MSHR misses
system.cpu.dcache.ReadReq_mshr_misses::total       417429                       # number of ReadReq MSHR misses
system.cpu.dcache.ReadReq_mshr_miss_latency::.cpu.data   8882683000                       # number of ReadReq MSHR miss cycles
system.cpu.dcache.ReadReq_mshr_miss_latency::total   8882683000                       # number of ReadReq MSHR miss cycles
system.cpu.dcache.ReadReq_mshr_miss_rate::.cpu.data     0.010152                       # mshr miss rate for ReadReq accesses
system.cpu.dcache.ReadReq_mshr_miss_rate::total     0.010152                       # mshr miss rate for ReadReq accesses
system.cpu.dcache.ReadReq_avg_mshr_miss_latency::.cpu.data 21279.506215                       # average ReadReq mshr miss latency
system.cpu.dcache.ReadReq_avg_mshr_miss_latency::total 21279.506215                       # average ReadReq mshr miss latency
system.cpu.dcache.WriteReq_hits::.cpu.data     10605286                       # number of WriteReq hits
system.cpu.dcache.WriteReq_hits::total       10605286                       # number of WriteReq hits
system.cpu.dcache.WriteReq_misses::.cpu.data       344805                       # number of WriteReq misses
system.cpu.dcache.WriteReq_misses::total       344805                       # number of WriteReq misses
system.cpu.dcache.WriteReq_miss_latency::.cpu.data  15698077994                       # number of WriteReq miss cycles
system.cpu.dcache.WriteReq_miss_latency::total  15698077994                       # number of WriteReq miss cycles
system.cpu.dcache.WriteReq_accesses::.cpu.data     10950091                       # number of WriteReq accesses(hits+misses)
system.cpu.dcache.WriteReq_accesses::total     10950091                       # number of WriteReq accesses(hits+misses)
system.cpu.dcache.WriteReq_miss_rate::.cpu.data     0.031489                       # miss rate for WriteReq accesses
system.cpu.dcache.WriteReq_miss_rate::total     0.031489                       # miss rate for WriteReq accesses
system.cpu.dcache.WriteReq_avg_miss_latency::.cpu.data 45527.408228                       # average WriteReq miss latency
system.cpu.dcache.WriteReq_avg_miss_latency::total 45527.408228                       # average WriteReq miss latency
system.cpu.dcache.WriteReq_mshr_hits::.cpu.data        58424                       # number of WriteReq MSHR hits
system.cpu.dcache.WriteReq_mshr_hits::total        58424                       # number of WriteReq MSHR hits
system.cpu.dcache.WriteReq_mshr_misses::.cpu.data       286381                       # number of WriteReq MSHR misses
system.cpu.dcache.WriteReq_mshr_misses::total       286381                       # number of WriteReq MSHR misses
system.cpu.dcache.WriteReq_mshr_miss_latency::.cpu.data  13832212000                       # number of WriteReq MSHR miss cycles
system.cpu.dcache.WriteReq_mshr_miss_latency::total  13832212000                       # number of WriteReq MSHR miss cycles
system.cpu.dcache.WriteReq_mshr_miss_rate::.cpu.data     0.026153                       # mshr miss rate for WriteReq accesses
system.cpu.dcache.WriteReq_mshr_miss_rate::total     0.026153                       # mshr miss rate for WriteReq accesses
system.cpu.dcache.WriteReq_avg_mshr_miss_latency::.cpu.data 48300.033871                       # average WriteReq mshr miss latency
system.cpu.dcache.WriteReq_avg_mshr_miss_latency::total 48300.033871                       # average WriteReq mshr miss latency
system.cpu.dcache.SoftPFReq_hits::.cpu.data          508                       # number of SoftPFReq hits
system.cpu.dcache.SoftPFReq_hits::total           508                       # number of SoftPFReq hits
system.cpu.dcache.SoftPFReq_misses::.cpu.data         7911                       # number of SoftPFReq misses
system.cpu.dcache.SoftPFReq_misses::total         7911                       # number of SoftPFReq misses
system.cpu.dcache.SoftPFReq_accesses::.cpu.data         8419                       # number of SoftPFReq accesses(hits+misses)
system.cpu.dcache.SoftPFReq_accesses::total         8419                       # number of SoftPFReq accesses(hits+misses)
system.cpu.dcache.SoftPFReq_miss_rate::.cpu.data     0.939660                       # miss rate for SoftPFReq accesses
system.cpu.dcache.SoftPFReq_miss_rate::total     0.939660                       # miss rate for SoftPFReq accesses
system.cpu.dcache.SoftPFReq_mshr_misses::.cpu.data         7905                       # number of SoftPFReq MSHR misses
system.cpu.dcache.SoftPFReq_mshr_misses::total         7905                       # number of SoftPFReq MSHR misses
system.cpu.dcache.SoftPFReq_mshr_miss_latency::.cpu.data    673849499                       # number of SoftPFReq MSHR miss cycles
system.cpu.dcache.SoftPFReq_mshr_miss_latency::total    673849499                       # number of SoftPFReq MSHR miss cycles
system.cpu.dcache.SoftPFReq_mshr_miss_rate::.cpu.data     0.938948                       # mshr miss rate for SoftPFReq accesses
system.cpu.dcache.SoftPFReq_mshr_miss_rate::total     0.938948                       # mshr miss rate for SoftPFReq accesses
system.cpu.dcache.SoftPFReq_avg_mshr_miss_latency::.cpu.data 85243.453384                       # average SoftPFReq mshr miss latency
system.cpu.dcache.SoftPFReq_avg_mshr_miss_latency::total 85243.453384                       # average SoftPFReq mshr miss latency
system.cpu.dcache.LoadLockedReq_hits::.cpu.data           38                       # number of LoadLockedReq hits
system.cpu.dcache.LoadLockedReq_hits::total           38                       # number of LoadLockedReq hits
system.cpu.dcache.LoadLockedReq_accesses::.cpu.data           38                       # number of LoadLockedReq accesses(hits+misses)
system.cpu.dcache.LoadLockedReq_accesses::total           38                       # number of LoadLockedReq accesses(hits+misses)
system.cpu.dcache.StoreCondReq_hits::.cpu.data           38                       # number of StoreCondReq hits
system.cpu.dcache.StoreCondReq_hits::total           38                       # number of StoreCondReq hits
system.cpu.dcache.StoreCondReq_accesses::.cpu.data           38                       # number of StoreCondReq accesses(hits+misses)
system.cpu.dcache.StoreCondReq_accesses::total           38                       # number of StoreCondReq accesses(hits+misses)
system.cpu.dcache.tags.pwrStateResidencyTicks::UNDEFINED  83982163500                       # Cumulative time (in ticks) in various power states
system.cpu.dcache.tags.tagsinuse          1008.180717                       # Cycle average of tags in use
system.cpu.dcache.tags.total_refs            52017990                       # Total number of references to valid blocks.
system.cpu.dcache.tags.sampled_refs            711714                       # Sample count of references to valid blocks.
system.cpu.dcache.tags.avg_refs             73.088333                       # Average number of references to valid blocks.
system.cpu.dcache.tags.warmup_cycle            176500                       # Cycle when the warmup percentage was hit.
system.cpu.dcache.tags.occ_blocks::.cpu.data  1008.180717                       # Average occupied blocks per requestor
system.cpu.dcache.tags.occ_percent::.cpu.data     0.984551                       # Average percentage of cache occupancy
system.cpu.dcache.tags.occ_percent::total     0.984551                       # Average percentage of cache occupancy
system.cpu.dcache.tags.occ_task_id_blocks::1024         1024                       # Occupied blocks per task id
system.cpu.dcache.tags.age_task_id_blocks_1024::0          242                       # Occupied blocks per task id
system.cpu.dcache.tags.age_task_id_blocks_1024::1          438                       # Occupied blocks per task id
system.cpu.dcache.tags.age_task_id_blocks_1024::2          342                       # Occupied blocks per task id
system.cpu.dcache.tags.age_task_id_blocks_1024::3            1                       # Occupied blocks per task id
system.cpu.dcache.tags.age_task_id_blocks_1024::4            1                       # Occupied blocks per task id
system.cpu.dcache.tags.occ_task_id_percent::1024            1                       # Percentage of cache occupancy per task id
system.cpu.dcache.tags.tag_accesses         104865808                       # Number of tag accesses
system.cpu.dcache.tags.data_accesses        104865808                       # Number of data accesses
system.cpu.itb.walker.pwrStateResidencyTicks::UNDEFINED  83982163500                       # Cumulative time (in ticks) in various power states
system.cpu.itb.stage2_mmu.stage2_tlb.walker.pwrStateResidencyTicks::UNDEFINED  83982163500                       # Cumulative time (in ticks) in various power states

---------- End Simulation Statistics   ----------
