
---------- Begin Simulation Statistics ----------
final_tick                                79887321000                       # Number of ticks from beginning of simulation (restored from checkpoints and never reset)
host_inst_rate                                 271951                       # Simulator instruction rate (inst/s)
host_mem_usage                                 693808                       # Number of bytes of host memory used
host_op_rate                                   272485                       # Simulator op (including micro ops) rate (op/s)
host_seconds                                   367.71                       # Real time elapsed on the host
host_tick_rate                              217254197                       # Simulator tick rate (ticks/s)
sim_freq                                 1000000000000                       # Frequency of simulated ticks
sim_insts                                   100000001                       # Number of instructions simulated
sim_ops                                     100196363                       # Number of ops (including micro ops) simulated
sim_seconds                                  0.079887                       # Number of seconds simulated
sim_ticks                                 79887321000                       # Number of ticks simulated
system.cpu.branchPred.BTBCorrect                    0                       # Number of correct BTB predictions (this stat may not work properly.
system.cpu.branchPred.BTBHitPct             99.616951                       # BTB Hit Percentage
system.cpu.branchPred.BTBHits                 2095588                       # Number of BTB hits
system.cpu.branchPred.BTBLookups              2103646                       # Number of BTB lookups
system.cpu.branchPred.RASInCorrect                  5                       # Number of incorrect RAS predictions.
system.cpu.branchPred.condIncorrect             81389                       # Number of conditional branches incorrect
system.cpu.branchPred.condPredicted           3728212                       # Number of conditional branches predicted
system.cpu.branchPred.indirectHits                292                       # Number of indirect target hits.
system.cpu.branchPred.indirectLookups             998                       # Number of indirect predictor lookups.
system.cpu.branchPred.indirectMisses              706                       # Number of indirect misses.
system.cpu.branchPred.lookups                 4478309                       # Number of BP lookups
system.cpu.branchPred.usedRAS                   65356                       # Number of times the RAS was used to get a target.
system.cpu.branchPredindirectMispredicted          168                       # Number of mispredicted indirect branches.
system.cpu.committedInsts                   100000001                       # Number of instructions committed
system.cpu.committedOps                     100196363                       # Number of ops (including micro ops) committed
system.cpu.cpi                               1.597746                       # CPI: cycles per instruction
system.cpu.discardedOps                        190743                       # Number of ops (including micro ops) which were discarded before commit
system.cpu.dtb.accesses                             0                       # DTB accesses
system.cpu.dtb.align_faults                         0                       # Number of TLB faults due to alignment restrictions
system.cpu.dtb.domain_faults                        0                       # Number of TLB faults due to domain restrictions
system.cpu.dtb.flush_entries                        0                       # Number of entries that have been flushed from TLB
system.cpu.dtb.flush_tlb                            0                       # Number of times complete TLB was flushed
system.cpu.dtb.flush_tlb_asid                       0                       # Number of times TLB was flushed by ASID
system.cpu.dtb.flush_tlb_mva                        0                       # Number of times TLB was flushed by MVA
system.cpu.dtb.flush_tlb_mva_asid                   0                       # Number of times TLB was flushed by MVA & ASID
system.cpu.dtb.hits                                 0                       # DTB hits
system.cpu.dtb.inst_accesses                        0                       # ITB inst accesses
system.cpu.dtb.inst_hits                            0                       # ITB inst hits
system.cpu.dtb.inst_misses                          0                       # ITB inst misses
system.cpu.dtb.misses                               0                       # DTB misses
system.cpu.dtb.perms_faults                         0                       # Number of TLB faults due to permissions restrictions
system.cpu.dtb.prefetch_faults                      0                       # Number of TLB faults due to prefetch
system.cpu.dtb.read_accesses                        0                       # DTB read accesses
system.cpu.dtb.read_hits                            0                       # DTB read hits
system.cpu.dtb.read_misses                          0                       # DTB read misses
system.cpu.dtb.stage2_mmu.stage2_tlb.accesses            0                       # DTB accesses
system.cpu.dtb.stage2_mmu.stage2_tlb.align_faults            0                       # Number of TLB faults due to alignment restrictions
system.cpu.dtb.stage2_mmu.stage2_tlb.domain_faults            0                       # Number of TLB faults due to domain restrictions
system.cpu.dtb.stage2_mmu.stage2_tlb.flush_entries            0                       # Number of entries that have been flushed from TLB
system.cpu.dtb.stage2_mmu.stage2_tlb.flush_tlb            0                       # Number of times complete TLB was flushed
system.cpu.dtb.stage2_mmu.stage2_tlb.flush_tlb_asid            0                       # Number of times TLB was flushed by ASID
system.cpu.dtb.stage2_mmu.stage2_tlb.flush_tlb_mva            0                       # Number of times TLB was flushed by MVA
system.cpu.dtb.stage2_mmu.stage2_tlb.flush_tlb_mva_asid            0                       # Number of times TLB was flushed by MVA & ASID
system.cpu.dtb.stage2_mmu.stage2_tlb.hits            0                       # DTB hits
system.cpu.dtb.stage2_mmu.stage2_tlb.inst_accesses            0                       # ITB inst accesses
system.cpu.dtb.stage2_mmu.stage2_tlb.inst_hits            0                       # ITB inst hits
system.cpu.dtb.stage2_mmu.stage2_tlb.inst_misses            0                       # ITB inst misses
system.cpu.dtb.stage2_mmu.stage2_tlb.misses            0                       # DTB misses
system.cpu.dtb.stage2_mmu.stage2_tlb.perms_faults            0                       # Number of TLB faults due to permissions restrictions
system.cpu.dtb.stage2_mmu.stage2_tlb.prefetch_faults            0                       # Number of TLB faults due to prefetch
system.cpu.dtb.stage2_mmu.stage2_tlb.read_accesses            0                       # DTB read accesses
system.cpu.dtb.stage2_mmu.stage2_tlb.read_hits            0                       # DTB read hits
system.cpu.dtb.stage2_mmu.stage2_tlb.read_misses            0                       # DTB read misses
system.cpu.dtb.stage2_mmu.stage2_tlb.walker.walkRequestOrigin_Requested::Data            0                       # Table walker requests started/completed, data/inst
system.cpu.dtb.stage2_mmu.stage2_tlb.walker.walkRequestOrigin_Requested::Inst            0                       # Table walker requests started/completed, data/inst
system.cpu.dtb.stage2_mmu.stage2_tlb.walker.walkRequestOrigin_Requested::total            0                       # Table walker requests started/completed, data/inst
system.cpu.dtb.stage2_mmu.stage2_tlb.walker.walkRequestOrigin_Completed::Data            0                       # Table walker requests started/completed, data/inst
system.cpu.dtb.stage2_mmu.stage2_tlb.walker.walkRequestOrigin_Completed::Inst            0                       # Table walker requests started/completed, data/inst
system.cpu.dtb.stage2_mmu.stage2_tlb.walker.walkRequestOrigin_Completed::total            0                       # Table walker requests started/completed, data/inst
system.cpu.dtb.stage2_mmu.stage2_tlb.walker.walkRequestOrigin::total            0                       # Table walker requests started/completed, data/inst
system.cpu.dtb.stage2_mmu.stage2_tlb.walker.walks            0                       # Table walker walks requested
system.cpu.dtb.stage2_mmu.stage2_tlb.write_accesses            0                       # DTB write accesses
system.cpu.dtb.stage2_mmu.stage2_tlb.write_hits            0                       # DTB write hits
system.cpu.dtb.stage2_mmu.stage2_tlb.write_misses            0                       # DTB write misses
system.cpu.dtb.walker.walkRequestOrigin_Requested::Data            0                       # Table walker requests started/completed, data/inst
system.cpu.dtb.walker.walkRequestOrigin_Requested::Inst            0                       # Table walker requests started/completed, data/inst
system.cpu.dtb.walker.walkRequestOrigin_Requested::total            0                       # Table walker requests started/completed, data/inst
system.cpu.dtb.walker.walkRequestOrigin_Completed::Data            0                       # Table walker requests started/completed, data/inst
system.cpu.dtb.walker.walkRequestOrigin_Completed::Inst            0                       # Table walker requests started/completed, data/inst
system.cpu.dtb.walker.walkRequestOrigin_Completed::total            0                       # Table walker requests started/completed, data/inst
system.cpu.dtb.walker.walkRequestOrigin::total            0                       # Table walker requests started/completed, data/inst
system.cpu.dtb.walker.walks                         0                       # Table walker walks requested
system.cpu.dtb.write_accesses                       0                       # DTB write accesses
system.cpu.dtb.write_hits                           0                       # DTB write hits
system.cpu.dtb.write_misses                         0                       # DTB write misses
system.cpu.fetch2.amo_instructions                  0                       # Number of memory atomic instructions successfully decoded
system.cpu.fetch2.fp_instructions                   0                       # Number of floating point instructions successfully decoded
system.cpu.fetch2.int_instructions           42610466                       # Number of integer instructions successfully decoded
system.cpu.fetch2.load_instructions          43403204                       # Number of memory load instructions successfully decoded
system.cpu.fetch2.store_instructions         11001557                       # Number of memory store instructions successfully decoded
system.cpu.fetch2.vec_instructions                  0                       # Number of SIMD instructions successfully decoded
system.cpu.idleCycles                        27605043                       # Total number of cycles that the object has spent stopped
system.cpu.ipc                               0.625882                       # IPC: instructions per cycle
system.cpu.itb.accesses                             0                       # DTB accesses
system.cpu.itb.align_faults                         0                       # Number of TLB faults due to alignment restrictions
system.cpu.itb.domain_faults                        0                       # Number of TLB faults due to domain restrictions
system.cpu.itb.flush_entries                        0                       # Number of entries that have been flushed from TLB
system.cpu.itb.flush_tlb                            0                       # Number of times complete TLB was flushed
system.cpu.itb.flush_tlb_asid                       0                       # Number of times TLB was flushed by ASID
system.cpu.itb.flush_tlb_mva                        0                       # Number of times TLB was flushed by MVA
system.cpu.itb.flush_tlb_mva_asid                   0                       # Number of times TLB was flushed by MVA & ASID
system.cpu.itb.hits                                 0                       # DTB hits
system.cpu.itb.inst_accesses                        0                       # ITB inst accesses
system.cpu.itb.inst_hits                            0                       # ITB inst hits
system.cpu.itb.inst_misses                          0                       # ITB inst misses
system.cpu.itb.misses                               0                       # DTB misses
system.cpu.itb.perms_faults                         0                       # Number of TLB faults due to permissions restrictions
system.cpu.itb.prefetch_faults                      0                       # Number of TLB faults due to prefetch
system.cpu.itb.read_accesses                        0                       # DTB read accesses
system.cpu.itb.read_hits                            0                       # DTB read hits
system.cpu.itb.read_misses                          0                       # DTB read misses
system.cpu.itb.stage2_mmu.stage2_tlb.accesses            0                       # DTB accesses
system.cpu.itb.stage2_mmu.stage2_tlb.align_faults            0                       # Number of TLB faults due to alignment restrictions
system.cpu.itb.stage2_mmu.stage2_tlb.domain_faults            0                       # Number of TLB faults due to domain restrictions
system.cpu.itb.stage2_mmu.stage2_tlb.flush_entries            0                       # Number of entries that have been flushed from TLB
system.cpu.itb.stage2_mmu.stage2_tlb.flush_tlb            0                       # Number of times complete TLB was flushed
system.cpu.itb.stage2_mmu.stage2_tlb.flush_tlb_asid            0                       # Number of times TLB was flushed by ASID
system.cpu.itb.stage2_mmu.stage2_tlb.flush_tlb_mva            0                       # Number of times TLB was flushed by MVA
system.cpu.itb.stage2_mmu.stage2_tlb.flush_tlb_mva_asid            0                       # Number of times TLB was flushed by MVA & ASID
system.cpu.itb.stage2_mmu.stage2_tlb.hits            0                       # DTB hits
system.cpu.itb.stage2_mmu.stage2_tlb.inst_accesses            0                       # ITB inst accesses
system.cpu.itb.stage2_mmu.stage2_tlb.inst_hits            0                       # ITB inst hits
system.cpu.itb.stage2_mmu.stage2_tlb.inst_misses            0                       # ITB inst misses
system.cpu.itb.stage2_mmu.stage2_tlb.misses            0                       # DTB misses
system.cpu.itb.stage2_mmu.stage2_tlb.perms_faults            0                       # Number of TLB faults due to permissions restrictions
system.cpu.itb.stage2_mmu.stage2_tlb.prefetch_faults            0                       # Number of TLB faults due to prefetch
system.cpu.itb.stage2_mmu.stage2_tlb.read_accesses            0                       # DTB read accesses
system.cpu.itb.stage2_mmu.stage2_tlb.read_hits            0                       # DTB read hits
system.cpu.itb.stage2_mmu.stage2_tlb.read_misses            0                       # DTB read misses
system.cpu.itb.stage2_mmu.stage2_tlb.walker.walkRequestOrigin_Requested::Data            0                       # Table walker requests started/completed, data/inst
system.cpu.itb.stage2_mmu.stage2_tlb.walker.walkRequestOrigin_Requested::Inst            0                       # Table walker requests started/completed, data/inst
system.cpu.itb.stage2_mmu.stage2_tlb.walker.walkRequestOrigin_Requested::total            0                       # Table walker requests started/completed, data/inst
system.cpu.itb.stage2_mmu.stage2_tlb.walker.walkRequestOrigin_Completed::Data            0                       # Table walker requests started/completed, data/inst
system.cpu.itb.stage2_mmu.stage2_tlb.walker.walkRequestOrigin_Completed::Inst            0                       # Table walker requests started/completed, data/inst
system.cpu.itb.stage2_mmu.stage2_tlb.walker.walkRequestOrigin_Completed::total            0                       # Table walker requests started/completed, data/inst
system.cpu.itb.stage2_mmu.stage2_tlb.walker.walkRequestOrigin::total            0                       # Table walker requests started/completed, data/inst
system.cpu.itb.stage2_mmu.stage2_tlb.walker.walks            0                       # Table walker walks requested
system.cpu.itb.stage2_mmu.stage2_tlb.write_accesses            0                       # DTB write accesses
system.cpu.itb.stage2_mmu.stage2_tlb.write_hits            0                       # DTB write hits
system.cpu.itb.stage2_mmu.stage2_tlb.write_misses            0                       # DTB write misses
system.cpu.itb.walker.walkRequestOrigin_Requested::Data            0                       # Table walker requests started/completed, data/inst
system.cpu.itb.walker.walkRequestOrigin_Requested::Inst            0                       # Table walker requests started/completed, data/inst
system.cpu.itb.walker.walkRequestOrigin_Requested::total            0                       # Table walker requests started/completed, data/inst
system.cpu.itb.walker.walkRequestOrigin_Completed::Data            0                       # Table walker requests started/completed, data/inst
system.cpu.itb.walker.walkRequestOrigin_Completed::Inst            0                       # Table walker requests started/completed, data/inst
system.cpu.itb.walker.walkRequestOrigin_Completed::total            0                       # Table walker requests started/completed, data/inst
system.cpu.itb.walker.walkRequestOrigin::total            0                       # Table walker requests started/completed, data/inst
system.cpu.itb.walker.walks                         0                       # Table walker walks requested
system.cpu.itb.write_accesses                       0                       # DTB write accesses
system.cpu.itb.write_hits                           0                       # DTB write hits
system.cpu.itb.write_misses                         0                       # DTB write misses
system.cpu.numCycles                        159774642                       # number of cpu cycles simulated
system.cpu.numFetchSuspends                         0                       # Number of times Execute suspended instruction fetching
system.cpu.numWorkItemsCompleted                    0                       # number of work items this cpu completed
system.cpu.numWorkItemsStarted                      0                       # number of work items this cpu started
system.cpu.op_class_0::No_OpClass                   0      0.00%      0.00% # Class of committed instruction
system.cpu.op_class_0::IntAlu                46531400     46.44%     46.44% # Class of committed instruction
system.cpu.op_class_0::IntMult                  20720      0.02%     46.46% # Class of committed instruction
system.cpu.op_class_0::IntDiv                       0      0.00%     46.46% # Class of committed instruction
system.cpu.op_class_0::FloatAdd                     0      0.00%     46.46% # Class of committed instruction
system.cpu.op_class_0::FloatCmp                     0      0.00%     46.46% # Class of committed instruction
system.cpu.op_class_0::FloatCvt                     0      0.00%     46.46% # Class of committed instruction
system.cpu.op_class_0::FloatMult                    0      0.00%     46.46% # Class of committed instruction
system.cpu.op_class_0::FloatMultAcc                 0      0.00%     46.46% # Class of committed instruction
system.cpu.op_class_0::FloatDiv                     0      0.00%     46.46% # Class of committed instruction
system.cpu.op_class_0::FloatMisc                    0      0.00%     46.46% # Class of committed instruction
system.cpu.op_class_0::FloatSqrt                    0      0.00%     46.46% # Class of committed instruction
system.cpu.op_class_0::SimdAdd                      0      0.00%     46.46% # Class of committed instruction
system.cpu.op_class_0::SimdAddAcc                   0      0.00%     46.46% # Class of committed instruction
system.cpu.op_class_0::SimdAlu                      0      0.00%     46.46% # Class of committed instruction
system.cpu.op_class_0::SimdCmp                      0      0.00%     46.46% # Class of committed instruction
system.cpu.op_class_0::SimdCvt                      0      0.00%     46.46% # Class of committed instruction
system.cpu.op_class_0::SimdMisc                     0      0.00%     46.46% # Class of committed instruction
system.cpu.op_class_0::SimdMult                     0      0.00%     46.46% # Class of committed instruction
system.cpu.op_class_0::SimdMultAcc                  0      0.00%     46.46% # Class of committed instruction
system.cpu.op_class_0::SimdShift                    0      0.00%     46.46% # Class of committed instruction
system.cpu.op_class_0::SimdShiftAcc                 0      0.00%     46.46% # Class of committed instruction
system.cpu.op_class_0::SimdDiv                      0      0.00%     46.46% # Class of committed instruction
system.cpu.op_class_0::SimdSqrt                     0      0.00%     46.46% # Class of committed instruction
system.cpu.op_class_0::SimdFloatAdd                 0      0.00%     46.46% # Class of committed instruction
system.cpu.op_class_0::SimdFloatAlu                 0      0.00%     46.46% # Class of committed instruction
system.cpu.op_class_0::SimdFloatCmp                 0      0.00%     46.46% # Class of committed instruction
system.cpu.op_class_0::SimdFloatCvt                 0      0.00%     46.46% # Class of committed instruction
system.cpu.op_class_0::SimdFloatDiv                 0      0.00%     46.46% # Class of committed instruction
system.cpu.op_class_0::SimdFloatMisc               18      0.00%     46.46% # Class of committed instruction
system.cpu.op_class_0::SimdFloatMult                0      0.00%     46.46% # Class of committed instruction
system.cpu.op_class_0::SimdFloatMultAcc             0      0.00%     46.46% # Class of committed instruction
system.cpu.op_class_0::SimdFloatSqrt                0      0.00%     46.46% # Class of committed instruction
system.cpu.op_class_0::SimdReduceAdd                0      0.00%     46.46% # Class of committed instruction
system.cpu.op_class_0::SimdReduceAlu                0      0.00%     46.46% # Class of committed instruction
system.cpu.op_class_0::SimdReduceCmp                0      0.00%     46.46% # Class of committed instruction
system.cpu.op_class_0::SimdFloatReduceAdd            0      0.00%     46.46% # Class of committed instruction
system.cpu.op_class_0::SimdFloatReduceCmp            0      0.00%     46.46% # Class of committed instruction
system.cpu.op_class_0::SimdAes                      0      0.00%     46.46% # Class of committed instruction
system.cpu.op_class_0::SimdAesMix                   0      0.00%     46.46% # Class of committed instruction
system.cpu.op_class_0::SimdSha1Hash                 0      0.00%     46.46% # Class of committed instruction
system.cpu.op_class_0::SimdSha1Hash2                0      0.00%     46.46% # Class of committed instruction
system.cpu.op_class_0::SimdSha256Hash               0      0.00%     46.46% # Class of committed instruction
system.cpu.op_class_0::SimdSha256Hash2              0      0.00%     46.46% # Class of committed instruction
system.cpu.op_class_0::SimdShaSigma2                0      0.00%     46.46% # Class of committed instruction
system.cpu.op_class_0::SimdShaSigma3                0      0.00%     46.46% # Class of committed instruction
system.cpu.op_class_0::SimdPredAlu                  0      0.00%     46.46% # Class of committed instruction
system.cpu.op_class_0::MemRead               42693601     42.61%     89.07% # Class of committed instruction
system.cpu.op_class_0::MemWrite              10950624     10.93%    100.00% # Class of committed instruction
system.cpu.op_class_0::FloatMemRead                 0      0.00%    100.00% # Class of committed instruction
system.cpu.op_class_0::FloatMemWrite                0      0.00%    100.00% # Class of committed instruction
system.cpu.op_class_0::IprAccess                    0      0.00%    100.00% # Class of committed instruction
system.cpu.op_class_0::InstPrefetch                 0      0.00%    100.00% # Class of committed instruction
system.cpu.op_class_0::total                100196363                       # Class of committed instruction
system.cpu.tickCycles                       132169599                       # Number of cycles that the object actually ticked
system.cpu.workload.numSyscalls                    84                       # Number of system calls
system.membus.snoop_filter.hit_multi_requests            0                       # Number of requests hitting in the snoop filter with multiple (>1) holders of the requested data.
system.membus.snoop_filter.hit_multi_snoops            0                       # Number of snoops hitting in the snoop filter with multiple (>1) holders of the requested data.
system.membus.snoop_filter.hit_single_requests        76383                       # Number of requests hitting in the snoop filter with a single holder of the requested data.
system.membus.snoop_filter.hit_single_snoops            0                       # Number of snoops hitting in the snoop filter with a single holder of the requested data.
system.membus.snoop_filter.tot_requests        185695                       # Total number of requests made to the snoop filter.
system.membus.snoop_filter.tot_snoops               0                       # Total number of snoops made to the snoop filter.
system.tol2bus.snoop_filter.hit_multi_requests           80                       # Number of requests hitting in the snoop filter with multiple (>1) holders of the requested data.
system.tol2bus.snoop_filter.hit_multi_snoops            0                       # Number of snoops hitting in the snoop filter with multiple (>1) holders of the requested data.
system.tol2bus.snoop_filter.hit_single_requests       421132                       # Number of requests hitting in the snoop filter with a single holder of the requested data.
system.tol2bus.snoop_filter.hit_single_snoops          283                       # Number of snoops hitting in the snoop filter with a single holder of the requested data.
system.tol2bus.snoop_filter.tot_requests       843523                       # Total number of requests made to the snoop filter.
system.tol2bus.snoop_filter.tot_snoops            283                       # Total number of snoops made to the snoop filter.
system.membus.pwrStateResidencyTicks::UNDEFINED  79887321000                       # Cumulative time (in ticks) in various power states
system.membus.trans_dist::ReadResp              30114                       # Transaction distribution
system.membus.trans_dist::WritebackDirty        49641                       # Transaction distribution
system.membus.trans_dist::CleanEvict            26732                       # Transaction distribution
system.membus.trans_dist::ReadExReq             79208                       # Transaction distribution
system.membus.trans_dist::ReadExResp            79208                       # Transaction distribution
system.membus.trans_dist::ReadSharedReq         30114                       # Transaction distribution
system.membus.pkt_count_system.l2.mem_side::system.mem_ctrls.port       295017                       # Packet count per connected master and slave (bytes)
system.membus.pkt_count::total                 295017                       # Packet count per connected master and slave (bytes)
system.membus.pkt_size_system.l2.mem_side::system.mem_ctrls.port     20347264                       # Cumulative packet size per connected master and slave (bytes)
system.membus.pkt_size::total                20347264                       # Cumulative packet size per connected master and slave (bytes)
system.membus.snoops                                0                       # Total snoops (count)
system.membus.snoopTraffic                          0                       # Total snoop traffic (bytes)
system.membus.snoop_fanout::samples            109322                       # Request fanout histogram
system.membus.snoop_fanout::mean                    0                       # Request fanout histogram
system.membus.snoop_fanout::stdev                   0                       # Request fanout histogram
system.membus.snoop_fanout::underflows              0      0.00%      0.00% # Request fanout histogram
system.membus.snoop_fanout::0                  109322    100.00%    100.00% # Request fanout histogram
system.membus.snoop_fanout::1                       0      0.00%    100.00% # Request fanout histogram
system.membus.snoop_fanout::overflows               0      0.00%    100.00% # Request fanout histogram
system.membus.snoop_fanout::min_value               0                       # Request fanout histogram
system.membus.snoop_fanout::max_value               0                       # Request fanout histogram
system.membus.snoop_fanout::total              109322                       # Request fanout histogram
system.membus.respLayer1.occupancy         1020006500                       # Layer occupancy (ticks)
system.membus.respLayer1.utilization              1.3                       # Layer utilization (%)
system.membus.reqLayer0.occupancy           608046500                       # Layer occupancy (ticks)
system.membus.reqLayer0.utilization               0.8                       # Layer utilization (%)
system.tol2bus.pwrStateResidencyTicks::UNDEFINED  79887321000                       # Cumulative time (in ticks) in various power states
system.tol2bus.trans_dist::ReadResp            215166                       # Transaction distribution
system.tol2bus.trans_dist::WritebackDirty       437851                       # Transaction distribution
system.tol2bus.trans_dist::WritebackClean          302                       # Transaction distribution
system.tol2bus.trans_dist::CleanEvict           59633                       # Transaction distribution
system.tol2bus.trans_dist::ReadExReq           207227                       # Transaction distribution
system.tol2bus.trans_dist::ReadExResp          207226                       # Transaction distribution
system.tol2bus.trans_dist::ReadCleanReq           540                       # Transaction distribution
system.tol2bus.trans_dist::ReadSharedReq       214626                       # Transaction distribution
system.tol2bus.pkt_count_system.cpu.icache.mem_side::system.l2.cpu_side         1382                       # Packet count per connected master and slave (bytes)
system.tol2bus.pkt_count_system.cpu.dcache.mem_side::system.l2.cpu_side      1264533                       # Packet count per connected master and slave (bytes)
system.tol2bus.pkt_count::total               1265915                       # Packet count per connected master and slave (bytes)
system.tol2bus.pkt_size_system.cpu.icache.mem_side::system.l2.cpu_side       107776                       # Cumulative packet size per connected master and slave (bytes)
system.tol2bus.pkt_size_system.cpu.dcache.mem_side::system.l2.cpu_side    103687936                       # Cumulative packet size per connected master and slave (bytes)
system.tol2bus.pkt_size::total              103795712                       # Cumulative packet size per connected master and slave (bytes)
system.tol2bus.snoops                           76656                       # Total snoops (count)
system.tol2bus.snoopTraffic                   6354048                       # Total snoop traffic (bytes)
system.tol2bus.snoop_fanout::samples           499049                       # Request fanout histogram
system.tol2bus.snoop_fanout::mean            0.000731                       # Request fanout histogram
system.tol2bus.snoop_fanout::stdev           0.027034                       # Request fanout histogram
system.tol2bus.snoop_fanout::underflows             0      0.00%      0.00% # Request fanout histogram
system.tol2bus.snoop_fanout::0                 498684     99.93%     99.93% # Request fanout histogram
system.tol2bus.snoop_fanout::1                    365      0.07%    100.00% # Request fanout histogram
system.tol2bus.snoop_fanout::2                      0      0.00%    100.00% # Request fanout histogram
system.tol2bus.snoop_fanout::overflows              0      0.00%    100.00% # Request fanout histogram
system.tol2bus.snoop_fanout::min_value              0                       # Request fanout histogram
system.tol2bus.snoop_fanout::max_value              1                       # Request fanout histogram
system.tol2bus.snoop_fanout::total             499049                       # Request fanout histogram
system.tol2bus.reqLayer0.occupancy         1198785500                       # Layer occupancy (ticks)
system.tol2bus.reqLayer0.utilization              1.5                       # Layer utilization (%)
system.tol2bus.respLayer1.occupancy        1054632495                       # Layer occupancy (ticks)
system.tol2bus.respLayer1.utilization             1.3                       # Layer utilization (%)
system.tol2bus.respLayer0.occupancy           1350000                       # Layer occupancy (ticks)
system.tol2bus.respLayer0.utilization             0.0                       # Layer utilization (%)
system.voltage_domain.voltage                       1                       # Voltage in Volts
system.clk_domain.clock                          1000                       # Clock period in ticks
system.l2.pwrStateResidencyTicks::UNDEFINED  79887321000                       # Cumulative time (in ticks) in various power states
system.l2.demand_hits::.cpu.inst                  123                       # number of demand (read+write) hits
system.l2.demand_hits::.cpu.data               312943                       # number of demand (read+write) hits
system.l2.demand_hits::total                   313066                       # number of demand (read+write) hits
system.l2.overall_hits::.cpu.inst                 123                       # number of overall hits
system.l2.overall_hits::.cpu.data              312943                       # number of overall hits
system.l2.overall_hits::total                  313066                       # number of overall hits
system.l2.demand_misses::.cpu.inst                417                       # number of demand (read+write) misses
system.l2.demand_misses::.cpu.data             108910                       # number of demand (read+write) misses
system.l2.demand_misses::total                 109327                       # number of demand (read+write) misses
system.l2.overall_misses::.cpu.inst               417                       # number of overall misses
system.l2.overall_misses::.cpu.data            108910                       # number of overall misses
system.l2.overall_misses::total                109327                       # number of overall misses
system.l2.demand_miss_latency::.cpu.inst     35693500                       # number of demand (read+write) miss cycles
system.l2.demand_miss_latency::.cpu.data   9790865500                       # number of demand (read+write) miss cycles
system.l2.demand_miss_latency::total       9826559000                       # number of demand (read+write) miss cycles
system.l2.overall_miss_latency::.cpu.inst     35693500                       # number of overall miss cycles
system.l2.overall_miss_latency::.cpu.data   9790865500                       # number of overall miss cycles
system.l2.overall_miss_latency::total      9826559000                       # number of overall miss cycles
system.l2.demand_accesses::.cpu.inst              540                       # number of demand (read+write) accesses
system.l2.demand_accesses::.cpu.data           421853                       # number of demand (read+write) accesses
system.l2.demand_accesses::total               422393                       # number of demand (read+write) accesses
system.l2.overall_accesses::.cpu.inst             540                       # number of overall (read+write) accesses
system.l2.overall_accesses::.cpu.data          421853                       # number of overall (read+write) accesses
system.l2.overall_accesses::total              422393                       # number of overall (read+write) accesses
system.l2.demand_miss_rate::.cpu.inst        0.772222                       # miss rate for demand accesses
system.l2.demand_miss_rate::.cpu.data        0.258171                       # miss rate for demand accesses
system.l2.demand_miss_rate::total            0.258828                       # miss rate for demand accesses
system.l2.overall_miss_rate::.cpu.inst       0.772222                       # miss rate for overall accesses
system.l2.overall_miss_rate::.cpu.data       0.258171                       # miss rate for overall accesses
system.l2.overall_miss_rate::total           0.258828                       # miss rate for overall accesses
system.l2.demand_avg_miss_latency::.cpu.inst 85595.923261                       # average overall miss latency
system.l2.demand_avg_miss_latency::.cpu.data 89898.682398                       # average overall miss latency
system.l2.demand_avg_miss_latency::total 89882.270619                       # average overall miss latency
system.l2.overall_avg_miss_latency::.cpu.inst 85595.923261                       # average overall miss latency
system.l2.overall_avg_miss_latency::.cpu.data 89898.682398                       # average overall miss latency
system.l2.overall_avg_miss_latency::total 89882.270619                       # average overall miss latency
system.l2.blocked_cycles::no_mshrs                  0                       # number of cycles access was blocked
system.l2.blocked_cycles::no_targets                0                       # number of cycles access was blocked
system.l2.blocked::no_mshrs                         0                       # number of cycles access was blocked
system.l2.blocked::no_targets                       0                       # number of cycles access was blocked
system.l2.avg_blocked_cycles::no_mshrs            nan                       # average number of cycles each access was blocked
system.l2.avg_blocked_cycles::no_targets          nan                       # average number of cycles each access was blocked
system.l2.writebacks::.writebacks               49641                       # number of writebacks
system.l2.writebacks::total                     49641                       # number of writebacks
system.l2.demand_mshr_hits::.cpu.data               5                       # number of demand (read+write) MSHR hits
system.l2.demand_mshr_hits::total                   5                       # number of demand (read+write) MSHR hits
system.l2.overall_mshr_hits::.cpu.data              5                       # number of overall MSHR hits
system.l2.overall_mshr_hits::total                  5                       # number of overall MSHR hits
system.l2.demand_mshr_misses::.cpu.inst           417                       # number of demand (read+write) MSHR misses
system.l2.demand_mshr_misses::.cpu.data        108905                       # number of demand (read+write) MSHR misses
system.l2.demand_mshr_misses::total            109322                       # number of demand (read+write) MSHR misses
system.l2.overall_mshr_misses::.cpu.inst          417                       # number of overall MSHR misses
system.l2.overall_mshr_misses::.cpu.data       108905                       # number of overall MSHR misses
system.l2.overall_mshr_misses::total           109322                       # number of overall MSHR misses
system.l2.demand_mshr_miss_latency::.cpu.inst     31523500                       # number of demand (read+write) MSHR miss cycles
system.l2.demand_mshr_miss_latency::.cpu.data   8701466000                       # number of demand (read+write) MSHR miss cycles
system.l2.demand_mshr_miss_latency::total   8732989500                       # number of demand (read+write) MSHR miss cycles
system.l2.overall_mshr_miss_latency::.cpu.inst     31523500                       # number of overall MSHR miss cycles
system.l2.overall_mshr_miss_latency::.cpu.data   8701466000                       # number of overall MSHR miss cycles
system.l2.overall_mshr_miss_latency::total   8732989500                       # number of overall MSHR miss cycles
system.l2.demand_mshr_miss_rate::.cpu.inst     0.772222                       # mshr miss rate for demand accesses
system.l2.demand_mshr_miss_rate::.cpu.data     0.258159                       # mshr miss rate for demand accesses
system.l2.demand_mshr_miss_rate::total       0.258816                       # mshr miss rate for demand accesses
system.l2.overall_mshr_miss_rate::.cpu.inst     0.772222                       # mshr miss rate for overall accesses
system.l2.overall_mshr_miss_rate::.cpu.data     0.258159                       # mshr miss rate for overall accesses
system.l2.overall_mshr_miss_rate::total      0.258816                       # mshr miss rate for overall accesses
system.l2.demand_avg_mshr_miss_latency::.cpu.inst 75595.923261                       # average overall mshr miss latency
system.l2.demand_avg_mshr_miss_latency::.cpu.data 79899.600569                       # average overall mshr miss latency
system.l2.demand_avg_mshr_miss_latency::total 79883.184537                       # average overall mshr miss latency
system.l2.overall_avg_mshr_miss_latency::.cpu.inst 75595.923261                       # average overall mshr miss latency
system.l2.overall_avg_mshr_miss_latency::.cpu.data 79899.600569                       # average overall mshr miss latency
system.l2.overall_avg_mshr_miss_latency::total 79883.184537                       # average overall mshr miss latency
system.l2.replacements                          76656                       # number of replacements
system.l2.WritebackDirty_hits::.writebacks       388210                       # number of WritebackDirty hits
system.l2.WritebackDirty_hits::total           388210                       # number of WritebackDirty hits
system.l2.WritebackDirty_accesses::.writebacks       388210                       # number of WritebackDirty accesses(hits+misses)
system.l2.WritebackDirty_accesses::total       388210                       # number of WritebackDirty accesses(hits+misses)
system.l2.WritebackClean_hits::.writebacks          289                       # number of WritebackClean hits
system.l2.WritebackClean_hits::total              289                       # number of WritebackClean hits
system.l2.WritebackClean_accesses::.writebacks          289                       # number of WritebackClean accesses(hits+misses)
system.l2.WritebackClean_accesses::total          289                       # number of WritebackClean accesses(hits+misses)
system.l2.ReadExReq_hits::.cpu.data            128019                       # number of ReadExReq hits
system.l2.ReadExReq_hits::total                128019                       # number of ReadExReq hits
system.l2.ReadExReq_misses::.cpu.data           79208                       # number of ReadExReq misses
system.l2.ReadExReq_misses::total               79208                       # number of ReadExReq misses
system.l2.ReadExReq_miss_latency::.cpu.data   7274097000                       # number of ReadExReq miss cycles
system.l2.ReadExReq_miss_latency::total    7274097000                       # number of ReadExReq miss cycles
system.l2.ReadExReq_accesses::.cpu.data        207227                       # number of ReadExReq accesses(hits+misses)
system.l2.ReadExReq_accesses::total            207227                       # number of ReadExReq accesses(hits+misses)
system.l2.ReadExReq_miss_rate::.cpu.data     0.382228                       # miss rate for ReadExReq accesses
system.l2.ReadExReq_miss_rate::total         0.382228                       # miss rate for ReadExReq accesses
system.l2.ReadExReq_avg_miss_latency::.cpu.data 91835.382790                       # average ReadExReq miss latency
system.l2.ReadExReq_avg_miss_latency::total 91835.382790                       # average ReadExReq miss latency
system.l2.ReadExReq_mshr_misses::.cpu.data        79208                       # number of ReadExReq MSHR misses
system.l2.ReadExReq_mshr_misses::total          79208                       # number of ReadExReq MSHR misses
system.l2.ReadExReq_mshr_miss_latency::.cpu.data   6482017000                       # number of ReadExReq MSHR miss cycles
system.l2.ReadExReq_mshr_miss_latency::total   6482017000                       # number of ReadExReq MSHR miss cycles
system.l2.ReadExReq_mshr_miss_rate::.cpu.data     0.382228                       # mshr miss rate for ReadExReq accesses
system.l2.ReadExReq_mshr_miss_rate::total     0.382228                       # mshr miss rate for ReadExReq accesses
system.l2.ReadExReq_avg_mshr_miss_latency::.cpu.data 81835.382790                       # average ReadExReq mshr miss latency
system.l2.ReadExReq_avg_mshr_miss_latency::total 81835.382790                       # average ReadExReq mshr miss latency
system.l2.ReadCleanReq_hits::.cpu.inst            123                       # number of ReadCleanReq hits
system.l2.ReadCleanReq_hits::total                123                       # number of ReadCleanReq hits
system.l2.ReadCleanReq_misses::.cpu.inst          417                       # number of ReadCleanReq misses
system.l2.ReadCleanReq_misses::total              417                       # number of ReadCleanReq misses
system.l2.ReadCleanReq_miss_latency::.cpu.inst     35693500                       # number of ReadCleanReq miss cycles
system.l2.ReadCleanReq_miss_latency::total     35693500                       # number of ReadCleanReq miss cycles
system.l2.ReadCleanReq_accesses::.cpu.inst          540                       # number of ReadCleanReq accesses(hits+misses)
system.l2.ReadCleanReq_accesses::total            540                       # number of ReadCleanReq accesses(hits+misses)
system.l2.ReadCleanReq_miss_rate::.cpu.inst     0.772222                       # miss rate for ReadCleanReq accesses
system.l2.ReadCleanReq_miss_rate::total      0.772222                       # miss rate for ReadCleanReq accesses
system.l2.ReadCleanReq_avg_miss_latency::.cpu.inst 85595.923261                       # average ReadCleanReq miss latency
system.l2.ReadCleanReq_avg_miss_latency::total 85595.923261                       # average ReadCleanReq miss latency
system.l2.ReadCleanReq_mshr_misses::.cpu.inst          417                       # number of ReadCleanReq MSHR misses
system.l2.ReadCleanReq_mshr_misses::total          417                       # number of ReadCleanReq MSHR misses
system.l2.ReadCleanReq_mshr_miss_latency::.cpu.inst     31523500                       # number of ReadCleanReq MSHR miss cycles
system.l2.ReadCleanReq_mshr_miss_latency::total     31523500                       # number of ReadCleanReq MSHR miss cycles
system.l2.ReadCleanReq_mshr_miss_rate::.cpu.inst     0.772222                       # mshr miss rate for ReadCleanReq accesses
system.l2.ReadCleanReq_mshr_miss_rate::total     0.772222                       # mshr miss rate for ReadCleanReq accesses
system.l2.ReadCleanReq_avg_mshr_miss_latency::.cpu.inst 75595.923261                       # average ReadCleanReq mshr miss latency
system.l2.ReadCleanReq_avg_mshr_miss_latency::total 75595.923261                       # average ReadCleanReq mshr miss latency
system.l2.ReadSharedReq_hits::.cpu.data        184924                       # number of ReadSharedReq hits
system.l2.ReadSharedReq_hits::total            184924                       # number of ReadSharedReq hits
system.l2.ReadSharedReq_misses::.cpu.data        29702                       # number of ReadSharedReq misses
system.l2.ReadSharedReq_misses::total           29702                       # number of ReadSharedReq misses
system.l2.ReadSharedReq_miss_latency::.cpu.data   2516768500                       # number of ReadSharedReq miss cycles
system.l2.ReadSharedReq_miss_latency::total   2516768500                       # number of ReadSharedReq miss cycles
system.l2.ReadSharedReq_accesses::.cpu.data       214626                       # number of ReadSharedReq accesses(hits+misses)
system.l2.ReadSharedReq_accesses::total        214626                       # number of ReadSharedReq accesses(hits+misses)
system.l2.ReadSharedReq_miss_rate::.cpu.data     0.138390                       # miss rate for ReadSharedReq accesses
system.l2.ReadSharedReq_miss_rate::total     0.138390                       # miss rate for ReadSharedReq accesses
system.l2.ReadSharedReq_avg_miss_latency::.cpu.data 84733.974143                       # average ReadSharedReq miss latency
system.l2.ReadSharedReq_avg_miss_latency::total 84733.974143                       # average ReadSharedReq miss latency
system.l2.ReadSharedReq_mshr_hits::.cpu.data            5                       # number of ReadSharedReq MSHR hits
system.l2.ReadSharedReq_mshr_hits::total            5                       # number of ReadSharedReq MSHR hits
system.l2.ReadSharedReq_mshr_misses::.cpu.data        29697                       # number of ReadSharedReq MSHR misses
system.l2.ReadSharedReq_mshr_misses::total        29697                       # number of ReadSharedReq MSHR misses
system.l2.ReadSharedReq_mshr_miss_latency::.cpu.data   2219449000                       # number of ReadSharedReq MSHR miss cycles
system.l2.ReadSharedReq_mshr_miss_latency::total   2219449000                       # number of ReadSharedReq MSHR miss cycles
system.l2.ReadSharedReq_mshr_miss_rate::.cpu.data     0.138366                       # mshr miss rate for ReadSharedReq accesses
system.l2.ReadSharedReq_mshr_miss_rate::total     0.138366                       # mshr miss rate for ReadSharedReq accesses
system.l2.ReadSharedReq_avg_mshr_miss_latency::.cpu.data 74736.471697                       # average ReadSharedReq mshr miss latency
system.l2.ReadSharedReq_avg_mshr_miss_latency::total 74736.471697                       # average ReadSharedReq mshr miss latency
system.l2.tags.pwrStateResidencyTicks::UNDEFINED  79887321000                       # Cumulative time (in ticks) in various power states
system.l2.tags.tagsinuse                 31568.324682                       # Cycle average of tags in use
system.l2.tags.total_refs                      843438                       # Total number of references to valid blocks.
system.l2.tags.sampled_refs                    109424                       # Sample count of references to valid blocks.
system.l2.tags.avg_refs                      7.707980                       # Average number of references to valid blocks.
system.l2.tags.warmup_cycle                     82000                       # Cycle when the warmup percentage was hit.
system.l2.tags.occ_blocks::.writebacks      52.913822                       # Average occupied blocks per requestor
system.l2.tags.occ_blocks::.cpu.inst        74.082599                       # Average occupied blocks per requestor
system.l2.tags.occ_blocks::.cpu.data     31441.328261                       # Average occupied blocks per requestor
system.l2.tags.occ_percent::.writebacks      0.001615                       # Average percentage of cache occupancy
system.l2.tags.occ_percent::.cpu.inst        0.002261                       # Average percentage of cache occupancy
system.l2.tags.occ_percent::.cpu.data        0.959513                       # Average percentage of cache occupancy
system.l2.tags.occ_percent::total            0.963389                       # Average percentage of cache occupancy
system.l2.tags.occ_task_id_blocks::1024         32768                       # Occupied blocks per task id
system.l2.tags.age_task_id_blocks_1024::2            3                       # Occupied blocks per task id
system.l2.tags.age_task_id_blocks_1024::3         2602                       # Occupied blocks per task id
system.l2.tags.age_task_id_blocks_1024::4        30163                       # Occupied blocks per task id
system.l2.tags.occ_task_id_percent::1024            1                       # Percentage of cache occupancy per task id
system.l2.tags.tag_accesses                   6856968                       # Number of tag accesses
system.l2.tags.data_accesses                  6856968                       # Number of data accesses
system.cpu_voltage_domain.voltage                   1                       # Voltage in Volts
system.mem_ctrls.pwrStateResidencyTicks::UNDEFINED  79887321000                       # Cumulative time (in ticks) in various power states
system.mem_ctrls.bytes_read::.cpu.inst          53376                       # Number of bytes read from this memory
system.mem_ctrls.bytes_read::.cpu.data       13939840                       # Number of bytes read from this memory
system.mem_ctrls.bytes_read::total           13993216                       # Number of bytes read from this memory
system.mem_ctrls.bytes_inst_read::.cpu.inst        53376                       # Number of instructions bytes read from this memory
system.mem_ctrls.bytes_inst_read::total         53376                       # Number of instructions bytes read from this memory
system.mem_ctrls.bytes_written::.writebacks      6354048                       # Number of bytes written to this memory
system.mem_ctrls.bytes_written::total         6354048                       # Number of bytes written to this memory
system.mem_ctrls.num_reads::.cpu.inst             417                       # Number of read requests responded to by this memory
system.mem_ctrls.num_reads::.cpu.data          108905                       # Number of read requests responded to by this memory
system.mem_ctrls.num_reads::total              109322                       # Number of read requests responded to by this memory
system.mem_ctrls.num_writes::.writebacks        49641                       # Number of write requests responded to by this memory
system.mem_ctrls.num_writes::total              49641                       # Number of write requests responded to by this memory
system.mem_ctrls.bw_read::.cpu.inst            668141                       # Total read bandwidth from this memory (bytes/s)
system.mem_ctrls.bw_read::.cpu.data         174493772                       # Total read bandwidth from this memory (bytes/s)
system.mem_ctrls.bw_read::total             175161913                       # Total read bandwidth from this memory (bytes/s)
system.mem_ctrls.bw_inst_read::.cpu.inst       668141                       # Instruction read bandwidth from this memory (bytes/s)
system.mem_ctrls.bw_inst_read::total           668141                       # Instruction read bandwidth from this memory (bytes/s)
system.mem_ctrls.bw_write::.writebacks       79537628                       # Write bandwidth from this memory (bytes/s)
system.mem_ctrls.bw_write::total             79537628                       # Write bandwidth from this memory (bytes/s)
system.mem_ctrls.bw_total::.writebacks       79537628                       # Total bandwidth to/from this memory (bytes/s)
system.mem_ctrls.bw_total::.cpu.inst           668141                       # Total bandwidth to/from this memory (bytes/s)
system.mem_ctrls.bw_total::.cpu.data        174493772                       # Total bandwidth to/from this memory (bytes/s)
system.mem_ctrls.bw_total::total            254699541                       # Total bandwidth to/from this memory (bytes/s)
system.mem_ctrls.avgPriority_.writebacks::samples     99282.00                       # Average QoS priority value for accepted requests
system.mem_ctrls.avgPriority_.cpu.inst::samples       834.00                       # Average QoS priority value for accepted requests
system.mem_ctrls.avgPriority_.cpu.data::samples    217792.00                       # Average QoS priority value for accepted requests
system.mem_ctrls.priorityMinLatency      0.000000018750                       # per QoS priority minimum request to response latency (s)
system.mem_ctrls.priorityMaxLatency      0.004881785500                       # per QoS priority maximum request to response latency (s)
system.mem_ctrls.numReadWriteTurnArounds         6060                       # Number of turnarounds from READ to WRITE
system.mem_ctrls.numWriteReadTurnArounds         6060                       # Number of turnarounds from WRITE to READ
system.mem_ctrls.numStayReadState              386756                       # Number of times bus staying in READ state
system.mem_ctrls.numStayWriteState              93298                       # Number of times bus staying in WRITE state
system.mem_ctrls.readReqs                      109322                       # Number of read requests accepted
system.mem_ctrls.writeReqs                      49641                       # Number of write requests accepted
system.mem_ctrls.readBursts                    218644                       # Number of DRAM read bursts, including those serviced by the write queue
system.mem_ctrls.writeBursts                    99282                       # Number of DRAM write bursts, including those merged in the write queue
system.mem_ctrls.servicedByWrQ                     18                       # Number of DRAM read bursts serviced by the write queue
system.mem_ctrls.mergedWrBursts                     0                       # Number of DRAM write bursts merged with an existing one
system.mem_ctrls.neitherReadNorWriteReqs            0                       # Number of requests that are neither read nor write
system.mem_ctrls.perBankRdBursts::0             13930                       # Per bank write bursts
system.mem_ctrls.perBankRdBursts::1             13864                       # Per bank write bursts
system.mem_ctrls.perBankRdBursts::2             13798                       # Per bank write bursts
system.mem_ctrls.perBankRdBursts::3             13538                       # Per bank write bursts
system.mem_ctrls.perBankRdBursts::4             13638                       # Per bank write bursts
system.mem_ctrls.perBankRdBursts::5             13622                       # Per bank write bursts
system.mem_ctrls.perBankRdBursts::6             13546                       # Per bank write bursts
system.mem_ctrls.perBankRdBursts::7             13708                       # Per bank write bursts
system.mem_ctrls.perBankRdBursts::8             13612                       # Per bank write bursts
system.mem_ctrls.perBankRdBursts::9             13586                       # Per bank write bursts
system.mem_ctrls.perBankRdBursts::10            13770                       # Per bank write bursts
system.mem_ctrls.perBankRdBursts::11            13734                       # Per bank write bursts
system.mem_ctrls.perBankRdBursts::12            13680                       # Per bank write bursts
system.mem_ctrls.perBankRdBursts::13            13482                       # Per bank write bursts
system.mem_ctrls.perBankRdBursts::14            13434                       # Per bank write bursts
system.mem_ctrls.perBankRdBursts::15            13684                       # Per bank write bursts
system.mem_ctrls.perBankWrBursts::0              6272                       # Per bank write bursts
system.mem_ctrls.perBankWrBursts::1              6276                       # Per bank write bursts
system.mem_ctrls.perBankWrBursts::2              6319                       # Per bank write bursts
system.mem_ctrls.perBankWrBursts::3              6300                       # Per bank write bursts
system.mem_ctrls.perBankWrBursts::4              6220                       # Per bank write bursts
system.mem_ctrls.perBankWrBursts::5              6196                       # Per bank write bursts
system.mem_ctrls.perBankWrBursts::6              6182                       # Per bank write bursts
system.mem_ctrls.perBankWrBursts::7              6272                       # Per bank write bursts
system.mem_ctrls.perBankWrBursts::8              6184                       # Per bank write bursts
system.mem_ctrls.perBankWrBursts::9              6144                       # Per bank write bursts
system.mem_ctrls.perBankWrBursts::10             6144                       # Per bank write bursts
system.mem_ctrls.perBankWrBursts::11             6150                       # Per bank write bursts
system.mem_ctrls.perBankWrBursts::12             6118                       # Per bank write bursts
system.mem_ctrls.perBankWrBursts::13             6146                       # Per bank write bursts
system.mem_ctrls.perBankWrBursts::14             6144                       # Per bank write bursts
system.mem_ctrls.perBankWrBursts::15             6188                       # Per bank write bursts
system.mem_ctrls.avgRdQLen                       2.06                       # Average read queue length when enqueuing
system.mem_ctrls.avgWrQLen                      25.48                       # Average write queue length when enqueuing
system.mem_ctrls.totQLat                   3812352000                       # Total ticks spent queuing
system.mem_ctrls.totBusLat                 1093130000                       # Total ticks spent in databus transfers
system.mem_ctrls.totMemAccLat              7911589500                       # Total ticks spent from burst creation until serviced by the DRAM
system.mem_ctrls.avgQLat                     17437.78                       # Average queueing delay per DRAM burst
system.mem_ctrls.avgBusLat                    5000.00                       # Average bus latency per DRAM burst
system.mem_ctrls.avgMemAccLat                36187.78                       # Average memory access latency per DRAM burst
system.mem_ctrls.numRdRetry                         0                       # Number of times read queue was full causing retry
system.mem_ctrls.numWrRetry                         0                       # Number of times write queue was full causing retry
system.mem_ctrls.readRowHits                   185599                       # Number of row buffer hits during reads
system.mem_ctrls.writeRowHits                   86337                       # Number of row buffer hits during writes
system.mem_ctrls.readRowHitRate                 84.89                       # Row buffer hit rate for reads
system.mem_ctrls.writeRowHitRate                86.96                       # Row buffer hit rate for writes
system.mem_ctrls.readPktSize::0                     0                       # Read request sizes (log2)
system.mem_ctrls.readPktSize::1                     0                       # Read request sizes (log2)
system.mem_ctrls.readPktSize::2                     0                       # Read request sizes (log2)
system.mem_ctrls.readPktSize::3                     0                       # Read request sizes (log2)
system.mem_ctrls.readPktSize::4                     0                       # Read request sizes (log2)
system.mem_ctrls.readPktSize::5                     0                       # Read request sizes (log2)
system.mem_ctrls.readPktSize::6                218644                       # Read request sizes (log2)
system.mem_ctrls.writePktSize::0                    0                       # Write request sizes (log2)
system.mem_ctrls.writePktSize::1                    0                       # Write request sizes (log2)
system.mem_ctrls.writePktSize::2                    0                       # Write request sizes (log2)
system.mem_ctrls.writePktSize::3                    0                       # Write request sizes (log2)
system.mem_ctrls.writePktSize::4                    0                       # Write request sizes (log2)
system.mem_ctrls.writePktSize::5                    0                       # Write request sizes (log2)
system.mem_ctrls.writePktSize::6                99282                       # Write request sizes (log2)
system.mem_ctrls.rdQLenPdf::0                   91735                       # What read queue length does an incoming req see
system.mem_ctrls.rdQLenPdf::1                   91997                       # What read queue length does an incoming req see
system.mem_ctrls.rdQLenPdf::2                   17572                       # What read queue length does an incoming req see
system.mem_ctrls.rdQLenPdf::3                   17311                       # What read queue length does an incoming req see
system.mem_ctrls.rdQLenPdf::4                       5                       # What read queue length does an incoming req see
system.mem_ctrls.rdQLenPdf::5                       4                       # What read queue length does an incoming req see
system.mem_ctrls.rdQLenPdf::6                       1                       # What read queue length does an incoming req see
system.mem_ctrls.rdQLenPdf::7                       1                       # What read queue length does an incoming req see
system.mem_ctrls.rdQLenPdf::8                       0                       # What read queue length does an incoming req see
system.mem_ctrls.rdQLenPdf::9                       0                       # What read queue length does an incoming req see
system.mem_ctrls.rdQLenPdf::10                      0                       # What read queue length does an incoming req see
system.mem_ctrls.rdQLenPdf::11                      0                       # What read queue length does an incoming req see
system.mem_ctrls.rdQLenPdf::12                      0                       # What read queue length does an incoming req see
system.mem_ctrls.rdQLenPdf::13                      0                       # What read queue length does an incoming req see
system.mem_ctrls.rdQLenPdf::14                      0                       # What read queue length does an incoming req see
system.mem_ctrls.rdQLenPdf::15                      0                       # What read queue length does an incoming req see
system.mem_ctrls.rdQLenPdf::16                      0                       # What read queue length does an incoming req see
system.mem_ctrls.rdQLenPdf::17                      0                       # What read queue length does an incoming req see
system.mem_ctrls.rdQLenPdf::18                      0                       # What read queue length does an incoming req see
system.mem_ctrls.rdQLenPdf::19                      0                       # What read queue length does an incoming req see
system.mem_ctrls.rdQLenPdf::20                      0                       # What read queue length does an incoming req see
system.mem_ctrls.rdQLenPdf::21                      0                       # What read queue length does an incoming req see
system.mem_ctrls.rdQLenPdf::22                      0                       # What read queue length does an incoming req see
system.mem_ctrls.rdQLenPdf::23                      0                       # What read queue length does an incoming req see
system.mem_ctrls.rdQLenPdf::24                      0                       # What read queue length does an incoming req see
system.mem_ctrls.rdQLenPdf::25                      0                       # What read queue length does an incoming req see
system.mem_ctrls.rdQLenPdf::26                      0                       # What read queue length does an incoming req see
system.mem_ctrls.rdQLenPdf::27                      0                       # What read queue length does an incoming req see
system.mem_ctrls.rdQLenPdf::28                      0                       # What read queue length does an incoming req see
system.mem_ctrls.rdQLenPdf::29                      0                       # What read queue length does an incoming req see
system.mem_ctrls.rdQLenPdf::30                      0                       # What read queue length does an incoming req see
system.mem_ctrls.rdQLenPdf::31                      0                       # What read queue length does an incoming req see
system.mem_ctrls.wrQLenPdf::0                       1                       # What write queue length does an incoming req see
system.mem_ctrls.wrQLenPdf::1                       1                       # What write queue length does an incoming req see
system.mem_ctrls.wrQLenPdf::2                       1                       # What write queue length does an incoming req see
system.mem_ctrls.wrQLenPdf::3                       1                       # What write queue length does an incoming req see
system.mem_ctrls.wrQLenPdf::4                       1                       # What write queue length does an incoming req see
system.mem_ctrls.wrQLenPdf::5                       1                       # What write queue length does an incoming req see
system.mem_ctrls.wrQLenPdf::6                       1                       # What write queue length does an incoming req see
system.mem_ctrls.wrQLenPdf::7                       1                       # What write queue length does an incoming req see
system.mem_ctrls.wrQLenPdf::8                       1                       # What write queue length does an incoming req see
system.mem_ctrls.wrQLenPdf::9                       1                       # What write queue length does an incoming req see
system.mem_ctrls.wrQLenPdf::10                      1                       # What write queue length does an incoming req see
system.mem_ctrls.wrQLenPdf::11                      1                       # What write queue length does an incoming req see
system.mem_ctrls.wrQLenPdf::12                      1                       # What write queue length does an incoming req see
system.mem_ctrls.wrQLenPdf::13                      1                       # What write queue length does an incoming req see
system.mem_ctrls.wrQLenPdf::14                      1                       # What write queue length does an incoming req see
system.mem_ctrls.wrQLenPdf::15                   1070                       # What write queue length does an incoming req see
system.mem_ctrls.wrQLenPdf::16                   1079                       # What write queue length does an incoming req see
system.mem_ctrls.wrQLenPdf::17                   2866                       # What write queue length does an incoming req see
system.mem_ctrls.wrQLenPdf::18                   3550                       # What write queue length does an incoming req see
system.mem_ctrls.wrQLenPdf::19                   5287                       # What write queue length does an incoming req see
system.mem_ctrls.wrQLenPdf::20                   6102                       # What write queue length does an incoming req see
system.mem_ctrls.wrQLenPdf::21                   6113                       # What write queue length does an incoming req see
system.mem_ctrls.wrQLenPdf::22                   6113                       # What write queue length does an incoming req see
system.mem_ctrls.wrQLenPdf::23                   6096                       # What write queue length does an incoming req see
system.mem_ctrls.wrQLenPdf::24                   6190                       # What write queue length does an incoming req see
system.mem_ctrls.wrQLenPdf::25                   7870                       # What write queue length does an incoming req see
system.mem_ctrls.wrQLenPdf::26                   8208                       # What write queue length does an incoming req see
system.mem_ctrls.wrQLenPdf::27                   6542                       # What write queue length does an incoming req see
system.mem_ctrls.wrQLenPdf::28                   6170                       # What write queue length does an incoming req see
system.mem_ctrls.wrQLenPdf::29                   6227                       # What write queue length does an incoming req see
system.mem_ctrls.wrQLenPdf::30                   6148                       # What write queue length does an incoming req see
system.mem_ctrls.wrQLenPdf::31                   6065                       # What write queue length does an incoming req see
system.mem_ctrls.wrQLenPdf::32                   6061                       # What write queue length does an incoming req see
system.mem_ctrls.wrQLenPdf::33                   1491                       # What write queue length does an incoming req see
system.mem_ctrls.wrQLenPdf::34                     12                       # What write queue length does an incoming req see
system.mem_ctrls.wrQLenPdf::35                      7                       # What write queue length does an incoming req see
system.mem_ctrls.wrQLenPdf::36                      0                       # What write queue length does an incoming req see
system.mem_ctrls.wrQLenPdf::37                      0                       # What write queue length does an incoming req see
system.mem_ctrls.wrQLenPdf::38                      0                       # What write queue length does an incoming req see
system.mem_ctrls.wrQLenPdf::39                      0                       # What write queue length does an incoming req see
system.mem_ctrls.wrQLenPdf::40                      0                       # What write queue length does an incoming req see
system.mem_ctrls.wrQLenPdf::41                      0                       # What write queue length does an incoming req see
system.mem_ctrls.wrQLenPdf::42                      0                       # What write queue length does an incoming req see
system.mem_ctrls.wrQLenPdf::43                      0                       # What write queue length does an incoming req see
system.mem_ctrls.wrQLenPdf::44                      0                       # What write queue length does an incoming req see
system.mem_ctrls.wrQLenPdf::45                      0                       # What write queue length does an incoming req see
system.mem_ctrls.wrQLenPdf::46                      0                       # What write queue length does an incoming req see
system.mem_ctrls.wrQLenPdf::47                      0                       # What write queue length does an incoming req see
system.mem_ctrls.wrQLenPdf::48                      0                       # What write queue length does an incoming req see
system.mem_ctrls.wrQLenPdf::49                      0                       # What write queue length does an incoming req see
system.mem_ctrls.wrQLenPdf::50                      0                       # What write queue length does an incoming req see
system.mem_ctrls.wrQLenPdf::51                      0                       # What write queue length does an incoming req see
system.mem_ctrls.wrQLenPdf::52                      0                       # What write queue length does an incoming req see
system.mem_ctrls.wrQLenPdf::53                      0                       # What write queue length does an incoming req see
system.mem_ctrls.wrQLenPdf::54                      0                       # What write queue length does an incoming req see
system.mem_ctrls.wrQLenPdf::55                      0                       # What write queue length does an incoming req see
system.mem_ctrls.wrQLenPdf::56                      0                       # What write queue length does an incoming req see
system.mem_ctrls.wrQLenPdf::57                      0                       # What write queue length does an incoming req see
system.mem_ctrls.wrQLenPdf::58                      0                       # What write queue length does an incoming req see
system.mem_ctrls.wrQLenPdf::59                      0                       # What write queue length does an incoming req see
system.mem_ctrls.wrQLenPdf::60                      0                       # What write queue length does an incoming req see
system.mem_ctrls.wrQLenPdf::61                      0                       # What write queue length does an incoming req see
system.mem_ctrls.wrQLenPdf::62                      0                       # What write queue length does an incoming req see
system.mem_ctrls.wrQLenPdf::63                      0                       # What write queue length does an incoming req see
system.mem_ctrls.bytesPerActivate::samples        45945                       # Bytes accessed per row activation
system.mem_ctrls.bytesPerActivate::mean    442.798651                       # Bytes accessed per row activation
system.mem_ctrls.bytesPerActivate::gmean   281.822223                       # Bytes accessed per row activation
system.mem_ctrls.bytesPerActivate::stdev   396.755419                       # Bytes accessed per row activation
system.mem_ctrls.bytesPerActivate::0-127         1077      2.34%      2.34% # Bytes accessed per row activation
system.mem_ctrls.bytesPerActivate::128-255        24233     52.74%     55.09% # Bytes accessed per row activation
system.mem_ctrls.bytesPerActivate::256-383         2149      4.68%     59.76% # Bytes accessed per row activation
system.mem_ctrls.bytesPerActivate::384-511         1289      2.81%     62.57% # Bytes accessed per row activation
system.mem_ctrls.bytesPerActivate::512-639         1095      2.38%     64.95% # Bytes accessed per row activation
system.mem_ctrls.bytesPerActivate::640-767         1648      3.59%     68.54% # Bytes accessed per row activation
system.mem_ctrls.bytesPerActivate::768-895         1095      2.38%     70.92% # Bytes accessed per row activation
system.mem_ctrls.bytesPerActivate::896-1023          769      1.67%     72.60% # Bytes accessed per row activation
system.mem_ctrls.bytesPerActivate::1024-1151        12590     27.40%    100.00% # Bytes accessed per row activation
system.mem_ctrls.bytesPerActivate::total        45945                       # Bytes accessed per row activation
system.mem_ctrls.rdPerTurnAround::samples         6060                       # Reads before turning the bus around for writes
system.mem_ctrls.rdPerTurnAround::mean      36.075908                       # Reads before turning the bus around for writes
system.mem_ctrls.rdPerTurnAround::gmean     25.207862                       # Reads before turning the bus around for writes
system.mem_ctrls.rdPerTurnAround::stdev    119.324116                       # Reads before turning the bus around for writes
system.mem_ctrls.rdPerTurnAround::0-511          6058     99.97%     99.97% # Reads before turning the bus around for writes
system.mem_ctrls.rdPerTurnAround::512-1023            1      0.02%     99.98% # Reads before turning the bus around for writes
system.mem_ctrls.rdPerTurnAround::8704-9215            1      0.02%    100.00% # Reads before turning the bus around for writes
system.mem_ctrls.rdPerTurnAround::total          6060                       # Reads before turning the bus around for writes
system.mem_ctrls.wrPerTurnAround::samples         6060                       # Writes before turning the bus around for reads
system.mem_ctrls.wrPerTurnAround::mean      16.378713                       # Writes before turning the bus around for reads
system.mem_ctrls.wrPerTurnAround::gmean     16.358941                       # Writes before turning the bus around for reads
system.mem_ctrls.wrPerTurnAround::stdev      0.830776                       # Writes before turning the bus around for reads
system.mem_ctrls.wrPerTurnAround::16             4965     81.93%     81.93% # Writes before turning the bus around for reads
system.mem_ctrls.wrPerTurnAround::17                9      0.15%     82.08% # Writes before turning the bus around for reads
system.mem_ctrls.wrPerTurnAround::18             1027     16.95%     99.03% # Writes before turning the bus around for reads
[...]
system.cpu.icache.ReadReq_mshr_misses::.cpu.inst          540                       # number of ReadReq MSHR misses
system.cpu.icache.ReadReq_mshr_misses::total          540                       # number of ReadReq MSHR misses
system.cpu.icache.ReadReq_mshr_miss_latency::.cpu.inst     37887500                       # number of ReadReq MSHR miss cycles
system.cpu.icache.ReadReq_mshr_miss_latency::total     37887500                       # number of ReadReq MSHR miss cycles
system.cpu.icache.ReadReq_mshr_miss_rate::.cpu.inst     0.000067                       # mshr miss rate for ReadReq accesses
system.cpu.icache.ReadReq_mshr_miss_rate::total     0.000067                       # mshr miss rate for ReadReq accesses
system.cpu.icache.ReadReq_avg_mshr_miss_latency::.cpu.inst 70162.037037                       # average ReadReq mshr miss latency
system.cpu.icache.ReadReq_avg_mshr_miss_latency::total 70162.037037                       # average ReadReq mshr miss latency
system.cpu.icache.tags.pwrStateResidencyTicks::UNDEFINED  79887321000                       # Cumulative time (in ticks) in various power states
system.cpu.icache.tags.tagsinuse           203.840105                       # Cycle average of tags in use
system.cpu.icache.tags.total_refs             8050870                       # Total number of references to valid blocks.
system.cpu.icache.tags.sampled_refs               540                       # Sample count of references to valid blocks.
system.cpu.icache.tags.avg_refs          14909.018519                       # Average number of references to valid blocks.
system.cpu.icache.tags.warmup_cycle             92500                       # Cycle when the warmup percentage was hit.
system.cpu.icache.tags.occ_blocks::.cpu.inst   203.840105                       # Average occupied blocks per requestor
system.cpu.icache.tags.occ_percent::.cpu.inst     0.796250                       # Average percentage of cache occupancy
system.cpu.icache.tags.occ_percent::total     0.796250                       # Average percentage of cache occupancy
system.cpu.icache.tags.occ_task_id_blocks::1024          238                       # Occupied blocks per task id
system.cpu.icache.tags.age_task_id_blocks_1024::3           52                       # Occupied blocks per task id
system.cpu.icache.tags.age_task_id_blocks_1024::4          186                       # Occupied blocks per task id
system.cpu.icache.tags.occ_task_id_percent::1024     0.929688                       # Percentage of cache occupancy per task id
system.cpu.icache.tags.tag_accesses          16102280                       # Number of tag accesses
system.cpu.icache.tags.data_accesses         16102280                       # Number of data accesses
system.cpu.dtb.walker.pwrStateResidencyTicks::UNDEFINED  79887321000                       # Cumulative time (in ticks) in various power states
system.cpu.dtb.stage2_mmu.stage2_tlb.walker.pwrStateResidencyTicks::UNDEFINED  79887321000                       # Cumulative time (in ticks) in various power states
system.cpu.dcache.pwrStateResidencyTicks::UNDEFINED  79887321000                       # Cumulative time (in ticks) in various power states
system.cpu.dcache.demand_hits::.cpu.data     51602055                       # number of demand (read+write) hits
system.cpu.dcache.demand_hits::total         51602055                       # number of demand (read+write) hits
system.cpu.dcache.overall_hits::.cpu.data     51602653                       # number of overall hits
system.cpu.dcache.overall_hits::total        51602653                       # number of overall hits
system.cpu.dcache.demand_misses::.cpu.data       452821                       # number of demand (read+write) misses
system.cpu.dcache.demand_misses::total         452821                       # number of demand (read+write) misses
system.cpu.dcache.overall_misses::.cpu.data       460642                       # number of overall misses
system.cpu.dcache.overall_misses::total        460642                       # number of overall misses
system.cpu.dcache.demand_miss_latency::.cpu.data  16278547500                       # number of demand (read+write) miss cycles
system.cpu.dcache.demand_miss_latency::total  16278547500                       # number of demand (read+write) miss cycles
system.cpu.dcache.overall_miss_latency::.cpu.data  16278547500                       # number of overall miss cycles
system.cpu.dcache.overall_miss_latency::total  16278547500                       # number of overall miss cycles
system.cpu.dcache.demand_accesses::.cpu.data     52054876                       # number of demand (read+write) accesses
system.cpu.dcache.demand_accesses::total     52054876                       # number of demand (read+write) accesses
system.cpu.dcache.overall_accesses::.cpu.data     52063295                       # number of overall (read+write) accesses
system.cpu.dcache.overall_accesses::total     52063295                       # number of overall (read+write) accesses
system.cpu.dcache.demand_miss_rate::.cpu.data     0.008699                       # miss rate for demand accesses
system.cpu.dcache.demand_miss_rate::total     0.008699                       # miss rate for demand accesses
system.cpu.dcache.overall_miss_rate::.cpu.data     0.008848                       # miss rate for overall accesses
system.cpu.dcache.overall_miss_rate::total     0.008848                       # miss rate for overall accesses
system.cpu.dcache.demand_avg_miss_latency::.cpu.data 35949.188531                       # average overall miss latency
system.cpu.dcache.demand_avg_miss_latency::total 35949.188531                       # average overall miss latency
system.cpu.dcache.overall_avg_miss_latency::.cpu.data 35338.826030                       # average overall miss latency
system.cpu.dcache.overall_avg_miss_latency::total 35338.826030                       # average overall miss latency
system.cpu.dcache.blocked_cycles::no_mshrs            0                       # number of cycles access was blocked
system.cpu.dcache.blocked_cycles::no_targets            0                       # number of cycles access was blocked
system.cpu.dcache.blocked::no_mshrs                 0                       # number of cycles access was blocked
system.cpu.dcache.blocked::no_targets               0                       # number of cycles access was blocked
system.cpu.dcache.avg_blocked_cycles::no_mshrs          nan                       # average number of cycles each access was blocked
system.cpu.dcache.avg_blocked_cycles::no_targets          nan                       # average number of cycles each access was blocked
system.cpu.dcache.writebacks::.writebacks       388210                       # number of writebacks
system.cpu.dcache.writebacks::total            388210                       # number of writebacks
system.cpu.dcache.demand_mshr_hits::.cpu.data        34923                       # number of demand (read+write) MSHR hits
system.cpu.dcache.demand_mshr_hits::total        34923                       # number of demand (read+write) MSHR hits
system.cpu.dcache.overall_mshr_hits::.cpu.data        34923                       # number of overall MSHR hits
system.cpu.dcache.overall_mshr_hits::total        34923                       # number of overall MSHR hits
system.cpu.dcache.demand_mshr_misses::.cpu.data       417898                       # number of demand (read+write) MSHR misses
system.cpu.dcache.demand_mshr_misses::total       417898                       # number of demand (read+write) MSHR misses
system.cpu.dcache.overall_mshr_misses::.cpu.data       421853                       # number of overall MSHR misses
system.cpu.dcache.overall_mshr_misses::total       421853                       # number of overall MSHR misses
system.cpu.dcache.demand_mshr_miss_latency::.cpu.data  13392830000                       # number of demand (read+write) MSHR miss cycles
system.cpu.dcache.demand_mshr_miss_latency::total  13392830000                       # number of demand (read+write) MSHR miss cycles
system.cpu.dcache.overall_mshr_miss_latency::.cpu.data  13722399500                       # number of overall MSHR miss cycles
system.cpu.dcache.overall_mshr_miss_latency::total  13722399500                       # number of overall MSHR miss cycles
system.cpu.dcache.demand_mshr_miss_rate::.cpu.data     0.008028                       # mshr miss rate for demand accesses
system.cpu.dcache.demand_mshr_miss_rate::total     0.008028                       # mshr miss rate for demand accesses
system.cpu.dcache.overall_mshr_miss_rate::.cpu.data     0.008103                       # mshr miss rate for overall accesses
system.cpu.dcache.overall_mshr_miss_rate::total     0.008103                       # mshr miss rate for overall accesses
system.cpu.dcache.demand_avg_mshr_miss_latency::.cpu.data 32048.083504                       # average overall mshr miss latency
system.cpu.dcache.demand_avg_mshr_miss_latency::total 32048.083504                       # average overall mshr miss latency
system.cpu.dcache.overall_avg_mshr_miss_latency::.cpu.data 32528.865505                       # average overall mshr miss latency
system.cpu.dcache.overall_avg_mshr_miss_latency::total 32528.865505                       # average overall mshr miss latency
system.cpu.dcache.replacements                 420828                       # number of replacements
system.cpu.dcache.ReadReq_hits::.cpu.data     40891851                       # number of ReadReq hits
system.cpu.dcache.ReadReq_hits::total        40891851                       # number of ReadReq hits
system.cpu.dcache.ReadReq_misses::.cpu.data       212933                       # number of ReadReq misses
system.cpu.dcache.ReadReq_misses::total        212933                       # number of ReadReq misses
system.cpu.dcache.ReadReq_miss_latency::.cpu.data   4825785500                       # number of ReadReq miss cycles
system.cpu.dcache.ReadReq_miss_latency::total   4825785500                       # number of ReadReq miss cycles
system.cpu.dcache.ReadReq_accesses::.cpu.data     41104784                       # number of ReadReq accesses(hits+misses)
system.cpu.dcache.ReadReq_accesses::total     41104784                       # number of ReadReq accesses(hits+misses)
system.cpu.dcache.ReadReq_miss_rate::.cpu.data     0.005180                       # miss rate for ReadReq accesses
system.cpu.dcache.ReadReq_miss_rate::total     0.005180                       # miss rate for ReadReq accesses
system.cpu.dcache.ReadReq_avg_miss_latency::.cpu.data 22663.398816                       # average ReadReq miss latency
system.cpu.dcache.ReadReq_avg_miss_latency::total 22663.398816                       # average ReadReq miss latency
system.cpu.dcache.ReadReq_mshr_hits::.cpu.data         2262                       # number of ReadReq MSHR hits
system.cpu.dcache.ReadReq_mshr_hits::total         2262                       # number of ReadReq MSHR hits
system.cpu.dcache.ReadReq_mshr_misses::.cpu.data       210671                       # number of ReadReq MSHR misses
system.cpu.dcache.ReadReq_mshr_misses::total       210671                       # number of ReadReq MSHR misses
system.cpu.dcache.ReadReq_mshr_miss_latency::.cpu.data   4462248000                       # number of ReadReq MSHR miss cycles
system.cpu.dcache.ReadReq_mshr_miss_latency::total   4462248000                       # number of ReadReq MSHR miss cycles
system.cpu.dcache.ReadReq_mshr_miss_rate::.cpu.data     0.005125                       # mshr miss rate for ReadReq accesses
system.cpu.dcache.ReadReq_mshr_miss_rate::total     0.005125                       # mshr miss rate for ReadReq accesses
system.cpu.dcache.ReadReq_avg_mshr_miss_latency::.cpu.data 21181.121274                       # average ReadReq mshr miss latency
system.cpu.dcache.ReadReq_avg_mshr_miss_latency::total 21181.121274                       # average ReadReq mshr miss latency
system.cpu.dcache.WriteReq_hits::.cpu.data     10710204                       # number of WriteReq hits
system.cpu.dcache.WriteReq_hits::total       10710204                       # number of WriteReq hits
system.cpu.dcache.WriteReq_misses::.cpu.data       239888                       # number of WriteReq misses
system.cpu.dcache.WriteReq_misses::total       239888                       # number of WriteReq misses
system.cpu.dcache.WriteReq_miss_latency::.cpu.data  11452762000                       # number of WriteReq miss cycles
system.cpu.dcache.WriteReq_miss_latency::total  11452762000                       # number of WriteReq miss cycles
system.cpu.dcache.WriteReq_accesses::.cpu.data     10950092                       # number of WriteReq accesses(hits+misses)
system.cpu.dcache.WriteReq_accesses::total     10950092                       # number of WriteReq accesses(hits+misses)
system.cpu.dcache.WriteReq_miss_rate::.cpu.data     0.021907                       # miss rate for WriteReq accesses
system.cpu.dcache.WriteReq_miss_rate::total     0.021907                       # miss rate for WriteReq accesses
system.cpu.dcache.WriteReq_avg_miss_latency::.cpu.data 47742.121323                       # average WriteReq miss latency
system.cpu.dcache.WriteReq_avg_miss_latency::total 47742.121323                       # average WriteReq miss latency
system.cpu.dcache.WriteReq_mshr_hits::.cpu.data        32661                       # number of WriteReq MSHR hits
system.cpu.dcache.WriteReq_mshr_hits::total        32661                       # number of WriteReq MSHR hits
system.cpu.dcache.WriteReq_mshr_misses::.cpu.data       207227                       # number of WriteReq MSHR misses
system.cpu.dcache.WriteReq_mshr_misses::total       207227                       # number of WriteReq MSHR misses
system.cpu.dcache.WriteReq_mshr_miss_latency::.cpu.data   8930582000                       # number of WriteReq MSHR miss cycles
system.cpu.dcache.WriteReq_mshr_miss_latency::total   8930582000                       # number of WriteReq MSHR miss cycles
system.cpu.dcache.WriteReq_mshr_miss_rate::.cpu.data     0.018925                       # mshr miss rate for WriteReq accesses
system.cpu.dcache.WriteReq_mshr_miss_rate::total     0.018925                       # mshr miss rate for WriteReq accesses
system.cpu.dcache.WriteReq_avg_mshr_miss_latency::.cpu.data 43095.648733                       # average WriteReq mshr miss latency
system.cpu.dcache.WriteReq_avg_mshr_miss_latency::total 43095.648733                       # average WriteReq mshr miss latency
system.cpu.dcache.SoftPFReq_hits::.cpu.data          598                       # number of SoftPFReq hits
system.cpu.dcache.SoftPFReq_hits::total           598                       # number of SoftPFReq hits
system.cpu.dcache.SoftPFReq_misses::.cpu.data         7821                       # number of SoftPFReq misses
system.cpu.dcache.SoftPFReq_misses::total         7821                       # number of SoftPFReq misses
system.cpu.dcache.SoftPFReq_accesses::.cpu.data         8419                       # number of SoftPFReq accesses(hits+misses)
system.cpu.dcache.SoftPFReq_accesses::total         8419                       # number of SoftPFReq accesses(hits+misses)
system.cpu.dcache.SoftPFReq_miss_rate::.cpu.data     0.928970                       # miss rate for SoftPFReq accesses
system.cpu.dcache.SoftPFReq_miss_rate::total     0.928970                       # miss rate for SoftPFReq accesses
system.cpu.dcache.SoftPFReq_mshr_misses::.cpu.data         3955                       # number of SoftPFReq MSHR misses
system.cpu.dcache.SoftPFReq_mshr_misses::total         3955                       # number of SoftPFReq MSHR misses
system.cpu.dcache.SoftPFReq_mshr_miss_latency::.cpu.data    329569500                       # number of SoftPFReq MSHR miss cycles
system.cpu.dcache.SoftPFReq_mshr_miss_latency::total    329569500                       # number of SoftPFReq MSHR miss cycles
system.cpu.dcache.SoftPFReq_mshr_miss_rate::.cpu.data     0.469771                       # mshr miss rate for SoftPFReq accesses
system.cpu.dcache.SoftPFReq_mshr_miss_rate::total     0.469771                       # mshr miss rate for SoftPFReq accesses
system.cpu.dcache.SoftPFReq_avg_mshr_miss_latency::.cpu.data 83329.835651                       # average SoftPFReq mshr miss latency
system.cpu.dcache.SoftPFReq_avg_mshr_miss_latency::total 83329.835651                       # average SoftPFReq mshr miss latency
system.cpu.dcache.LoadLockedReq_hits::.cpu.data           38                       # number of LoadLockedReq hits
system.cpu.dcache.LoadLockedReq_hits::total           38                       # number of LoadLockedReq hits
system.cpu.dcache.LoadLockedReq_accesses::.cpu.data           38                       # number of LoadLockedReq accesses(hits+misses)
system.cpu.dcache.LoadLockedReq_accesses::total           38                       # number of LoadLockedReq accesses(hits+misses)
system.cpu.dcache.StoreCondReq_hits::.cpu.data           38                       # number of StoreCondReq hits
system.cpu.dcache.StoreCondReq_hits::total           38                       # number of StoreCondReq hits
system.cpu.dcache.StoreCondReq_accesses::.cpu.data           38                       # number of StoreCondReq accesses(hits+misses)
system.cpu.dcache.StoreCondReq_accesses::total           38                       # number of StoreCondReq accesses(hits+misses)
system.cpu.dcache.tags.pwrStateResidencyTicks::UNDEFINED  79887321000                       # Cumulative time (in ticks) in various power states
system.cpu.dcache.tags.tagsinuse          1005.729814                       # Cycle average of tags in use
system.cpu.dcache.tags.total_refs            52024581                       # Total number of references to valid blocks.
system.cpu.dcache.tags.sampled_refs            421852                       # Sample count of references to valid blocks.
system.cpu.dcache.tags.avg_refs            123.324249                       # Average number of references to valid blocks.
system.cpu.dcache.tags.warmup_cycle            186500                       # Cycle when the warmup percentage was hit.
system.cpu.dcache.tags.occ_blocks::.cpu.data  1005.729814                       # Average occupied blocks per requestor
system.cpu.dcache.tags.occ_percent::.cpu.data     0.982158                       # Average percentage of cache occupancy
system.cpu.dcache.tags.occ_percent::total     0.982158                       # Average percentage of cache occupancy
system.cpu.dcache.tags.occ_task_id_blocks::1024         1024                       # Occupied blocks per task id
system.cpu.dcache.tags.age_task_id_blocks_1024::0          303                       # Occupied blocks per task id
system.cpu.dcache.tags.age_task_id_blocks_1024::1          516                       # Occupied blocks per task id
system.cpu.dcache.tags.age_task_id_blocks_1024::2          199                       # Occupied blocks per task id
system.cpu.dcache.tags.age_task_id_blocks_1024::3            5                       # Occupied blocks per task id
system.cpu.dcache.tags.age_task_id_blocks_1024::4            1                       # Occupied blocks per task id
system.cpu.dcache.tags.occ_task_id_percent::1024            1                       # Percentage of cache occupancy per task id
system.cpu.dcache.tags.tag_accesses         833435788                       # Number of tag accesses
system.cpu.dcache.tags.data_accesses        833435788                       # Number of data accesses
system.cpu.itb.walker.pwrStateResidencyTicks::UNDEFINED  79887321000                       # Cumulative time (in ticks) in various power states
system.cpu.itb.stage2_mmu.stage2_tlb.walker.pwrStateResidencyTicks::UNDEFINED  79887321000                       # Cumulative time (in ticks) in various power states

---------- End Simulation Statistics   ----------
