
---------- Begin Simulation Statistics ----------
final_tick                                87553936500                       # Number of ticks from beginning of simulation (restored from checkpoints and never reset)
host_inst_rate                                 316866                       # Simulator instruction rate (inst/s)
host_mem_usage                                 683060                       # Number of bytes of host memory used
host_op_rate                                   317489                       # Simulator op (including micro ops) rate (op/s)
host_seconds                                   315.59                       # Real time elapsed on the host
host_tick_rate                              277428951                       # Simulator tick rate (ticks/s)
sim_freq                                 1000000000000                       # Frequency of simulated ticks
sim_insts                                   100000000                       # Number of instructions simulated
sim_ops                                     100196369                       # Number of ops (including micro ops) simulated
sim_seconds                                  0.087554                       # Number of seconds simulated
sim_ticks                                 87553936500                       # Number of ticks simulated
system.cpu.branchPred.BTBCorrect                    0                       # Number of correct BTB predictions (this stat may not work properly.
system.cpu.branchPred.BTBHitPct             99.618141                       # BTB Hit Percentage
system.cpu.branchPred.BTBHits                 2095622                       # Number of BTB hits
system.cpu.branchPred.BTBLookups              2103655                       # Number of BTB lookups
system.cpu.branchPred.RASInCorrect                  6                       # Number of incorrect RAS predictions.
system.cpu.branchPred.condIncorrect             81391                       # Number of conditional branches incorrect
system.cpu.branchPred.condPredicted           3728118                       # Number of conditional branches predicted
system.cpu.branchPred.indirectHits                293                       # Number of indirect target hits.
system.cpu.branchPred.indirectLookups             998                       # Number of indirect predictor lookups.
system.cpu.branchPred.indirectMisses              705                       # Number of indirect misses.
system.cpu.branchPred.lookups                 4478237                       # Number of BP lookups
system.cpu.branchPred.usedRAS                   65358                       # Number of times the RAS was used to get a target.
system.cpu.branchPredindirectMispredicted          168                       # Number of mispredicted indirect branches.
system.cpu.committedInsts                   100000000                       # Number of instructions committed
system.cpu.committedOps                     100196369                       # Number of ops (including micro ops) committed
system.cpu.cpi                               1.751079                       # CPI: cycles per instruction
system.cpu.discardedOps                        190829                       # Number of ops (including micro ops) which were discarded before commit
system.cpu.dtb.accesses                             0                       # DTB accesses
system.cpu.dtb.align_faults                         0                       # Number of TLB faults due to alignment restrictions
system.cpu.dtb.domain_faults                        0                       # Number of TLB faults due to domain restrictions
system.cpu.dtb.flush_entries                        0                       # Number of entries that have been flushed from TLB
system.cpu.dtb.flush_tlb                            0                       # Number of times complete TLB was flushed
system.cpu.dtb.flush_tlb_asid                       0                       # Number of times TLB was flushed by ASID
system.cpu.dtb.flush_tlb_mva                        0                       # Number of times TLB was flushed by MVA
system.cpu.dtb.flush_tlb_mva_asid                   0                       # Number of times TLB was flushed by MVA & ASID
system.cpu.dtb.hits                                 0                       # DTB hits
system.cpu.dtb.inst_accesses                        0                       # ITB inst accesses
system.cpu.dtb.inst_hits                            0                       # ITB inst hits
system.cpu.dtb.inst_misses                          0                       # ITB inst misses
system.cpu.dtb.misses                               0                       # DTB misses
system.cpu.dtb.perms_faults                         0                       # Number of TLB faults due to permissions restrictions
system.cpu.dtb.prefetch_faults                      0                       # Number of TLB faults due to prefetch
system.cpu.dtb.read_accesses                        0                       # DTB read accesses
system.cpu.dtb.read_hits                            0                       # DTB read hits
system.cpu.dtb.read_misses                          0                       # DTB read misses
system.cpu.dtb.stage2_mmu.stage2_tlb.accesses            0                       # DTB accesses
system.cpu.dtb.stage2_mmu.stage2_tlb.align_faults            0                       # Number of TLB faults due to alignment restrictions
system.cpu.dtb.stage2_mmu.stage2_tlb.domain_faults            0                       # Number of TLB faults due to domain restrictions
system.cpu.dtb.stage2_mmu.stage2_tlb.flush_entries            0                       # Number of entries that have been flushed from TLB
system.cpu.dtb.stage2_mmu.stage2_tlb.flush_tlb            0                       # Number of times complete TLB was flushed
system.cpu.dtb.stage2_mmu.stage2_tlb.flush_tlb_asid            0                       # Number of times TLB was flushed by ASID
system.cpu.dtb.stage2_mmu.stage2_tlb.flush_tlb_mva            0                       # Number of times TLB was flushed by MVA
system.cpu.dtb.stage2_mmu.stage2_tlb.flush_tlb_mva_asid            0                       # Number of times TLB was flushed by MVA & ASID
system.cpu.dtb.stage2_mmu.stage2_tlb.hits            0                       # DTB hits
system.cpu.dtb.stage2_mmu.stage2_tlb.inst_accesses            0                       # ITB inst accesses
system.cpu.dtb.stage2_mmu.stage2_tlb.inst_hits            0                       # ITB inst hits
system.cpu.dtb.stage2_mmu.stage2_tlb.inst_misses            0                       # ITB inst misses
system.cpu.dtb.stage2_mmu.stage2_tlb.misses            0                       # DTB misses
system.cpu.dtb.stage2_mmu.stage2_tlb.perms_faults            0                       # Number of TLB faults due to permissions restrictions
system.cpu.dtb.stage2_mmu.stage2_tlb.prefetch_faults            0                       # Number of TLB faults due to prefetch
system.cpu.dtb.stage2_mmu.stage2_tlb.read_accesses            0                       # DTB read accesses
system.cpu.dtb.stage2_mmu.stage2_tlb.read_hits            0                       # DTB read hits
system.cpu.dtb.stage2_mmu.stage2_tlb.read_misses            0                       # DTB read misses
system.cpu.dtb.stage2_mmu.stage2_tlb.walker.walkRequestOrigin_Requested::Data            0                       # Table walker requests started/completed, data/inst
system.cpu.dtb.stage2_mmu.stage2_tlb.walker.walkRequestOrigin_Requested::Inst            0                       # Table walker requests started/completed, data/inst
system.cpu.dtb.stage2_mmu.stage2_tlb.walker.walkRequestOrigin_Requested::total            0                       # Table walker requests started/completed, data/inst
system.cpu.dtb.stage2_mmu.stage2_tlb.walker.walkRequestOrigin_Completed::Data            0                       # Table walker requests started/completed, data/inst
system.cpu.dtb.stage2_mmu.stage2_tlb.walker.walkRequestOrigin_Completed::Inst            0                       # Table walker requests started/completed, data/inst
system.cpu.dtb.stage2_mmu.stage2_tlb.walker.walkRequestOrigin_Completed::total            0                       # Table walker requests started/completed, data/inst
system.cpu.dtb.stage2_mmu.stage2_tlb.walker.walkRequestOrigin::total            0                       # Table walker requests started/completed, data/inst
system.cpu.dtb.stage2_mmu.stage2_tlb.walker.walks            0                       # Table walker walks requested
system.cpu.dtb.stage2_mmu.stage2_tlb.write_accesses            0                       # DTB write accesses
system.cpu.dtb.stage2_mmu.stage2_tlb.write_hits            0                       # DTB write hits
system.cpu.dtb.stage2_mmu.stage2_tlb.write_misses            0                       # DTB write misses
system.cpu.dtb.walker.walkRequestOrigin_Requested::Data            0                       # Table walker requests started/completed, data/inst
system.cpu.dtb.walker.walkRequestOrigin_Requested::Inst            0                       # Table walker requests started/completed, data/inst
system.cpu.dtb.walker.walkRequestOrigin_Requested::total            0                       # Table walker requests started/completed, data/inst
system.cpu.dtb.walker.walkRequestOrigin_Completed::Data            0                       # Table walker requests started/completed, data/inst
system.cpu.dtb.walker.walkRequestOrigin_Completed::Inst            0                       # Table walker requests started/completed, data/inst
system.cpu.dtb.walker.walkRequestOrigin_Completed::total            0                       # Table walker requests started/completed, data/inst
system.cpu.dtb.walker.walkRequestOrigin::total            0                       # Table walker requests started/completed, data/inst
system.cpu.dtb.walker.walks                         0                       # Table walker walks requested
system.cpu.dtb.write_accesses                       0                       # DTB write accesses
system.cpu.dtb.write_hits                           0                       # DTB write hits
system.cpu.dtb.write_misses                         0                       # DTB write misses
system.cpu.fetch2.amo_instructions                  0                       # Number of memory atomic instructions successfully decoded
system.cpu.fetch2.fp_instructions                   0                       # Number of floating point instructions successfully decoded
system.cpu.fetch2.int_instructions           42610581                       # Number of integer instructions successfully decoded
system.cpu.fetch2.load_instructions          43403316                       # Number of memory load instructions successfully decoded
system.cpu.fetch2.store_instructions         11001630                       # Number of memory store instructions successfully decoded
system.cpu.fetch2.vec_instructions                  0                       # Number of SIMD instructions successfully decoded
system.cpu.idleCycles                        42345654                       # Total number of cycles that the object has spent stopped
system.cpu.ipc                               0.571077                       # IPC: instructions per cycle
system.cpu.itb.accesses                             0                       # DTB accesses
system.cpu.itb.align_faults                         0                       # Number of TLB faults due to alignment restrictions
system.cpu.itb.domain_faults                        0                       # Number of TLB faults due to domain restrictions
system.cpu.itb.flush_entries                        0                       # Number of entries that have been flushed from TLB
system.cpu.itb.flush_tlb                            0                       # Number of times complete TLB was flushed
system.cpu.itb.flush_tlb_asid                       0                       # Number of times TLB was flushed by ASID
system.cpu.itb.flush_tlb_mva                        0                       # Number of times TLB was flushed by MVA
system.cpu.itb.flush_tlb_mva_asid                   0                       # Number of times TLB was flushed by MVA & ASID
system.cpu.itb.hits                                 0                       # DTB hits
system.cpu.itb.inst_accesses                        0                       # ITB inst accesses
system.cpu.itb.inst_hits                            0                       # ITB inst hits
system.cpu.itb.inst_misses                          0                       # ITB inst misses
system.cpu.itb.misses                               0                       # DTB misses
system.cpu.itb.perms_faults                         0                       # Number of TLB faults due to permissions restrictions
system.cpu.itb.prefetch_faults                      0                       # Number of TLB faults due to prefetch
system.cpu.itb.read_accesses                        0                       # DTB read accesses
system.cpu.itb.read_hits                            0                       # DTB read hits
system.cpu.itb.read_misses                          0                       # DTB read misses
system.cpu.itb.stage2_mmu.stage2_tlb.accesses            0                       # DTB accesses
system.cpu.itb.stage2_mmu.stage2_tlb.align_faults            0                       # Number of TLB faults due to alignment restrictions
system.cpu.itb.stage2_mmu.stage2_tlb.domain_faults            0                       # Number of TLB faults due to domain restrictions
system.cpu.itb.stage2_mmu.stage2_tlb.flush_entries            0                       # Number of entries that have been flushed from TLB
system.cpu.itb.stage2_mmu.stage2_tlb.flush_tlb            0                       # Number of times complete TLB was flushed
system.cpu.itb.stage2_mmu.stage2_tlb.flush_tlb_asid            0                       # Number of times TLB was flushed by ASID
system.cpu.itb.stage2_mmu.stage2_tlb.flush_tlb_mva            0                       # Number of times TLB was flushed by MVA
system.cpu.itb.stage2_mmu.stage2_tlb.flush_tlb_mva_asid            0                       # Number of times TLB was flushed by MVA & ASID
system.cpu.itb.stage2_mmu.stage2_tlb.hits            0                       # DTB hits
system.cpu.itb.stage2_mmu.stage2_tlb.inst_accesses            0                       # ITB inst accesses
system.cpu.itb.stage2_mmu.stage2_tlb.inst_hits            0                       # ITB inst hits
system.cpu.itb.stage2_mmu.stage2_tlb.inst_misses            0                       # ITB inst misses
system.cpu.itb.stage2_mmu.stage2_tlb.misses            0                       # DTB misses
system.cpu.itb.stage2_mmu.stage2_tlb.perms_faults            0                       # Number of TLB faults due to permissions restrictions
system.cpu.itb.stage2_mmu.stage2_tlb.prefetch_faults            0                       # Number of TLB faults due to prefetch
system.cpu.itb.stage2_mmu.stage2_tlb.read_accesses            0                       # DTB read accesses
system.cpu.itb.stage2_mmu.stage2_tlb.read_hits            0                       # DTB read hits
system.cpu.itb.stage2_mmu.stage2_tlb.read_misses            0                       # DTB read misses
system.cpu.itb.stage2_mmu.stage2_tlb.walker.walkRequestOrigin_Requested::Data            0                       # Table walker requests started/completed, data/inst
system.cpu.itb.stage2_mmu.stage2_tlb.walker.walkRequestOrigin_Requested::Inst            0                       # Table walker requests started/completed, data/inst
system.cpu.itb.stage2_mmu.stage2_tlb.walker.walkRequestOrigin_Requested::total            0                       # Table walker requests started/completed, data/inst
system.cpu.itb.stage2_mmu.stage2_tlb.walker.walkRequestOrigin_Completed::Data            0                       # Table walker requests started/completed, data/inst
system.cpu.itb.stage2_mmu.stage2_tlb.walker.walkRequestOrigin_Completed::Inst            0                       # Table walker requests started/completed, data/inst
system.cpu.itb.stage2_mmu.stage2_tlb.walker.walkRequestOrigin_Completed::total            0                       # Table walker requests started/completed, data/inst
system.cpu.itb.stage2_mmu.stage2_tlb.walker.walkRequestOrigin::total            0                       # Table walker requests started/completed, data/inst
system.cpu.itb.stage2_mmu.stage2_tlb.walker.walks            0                       # Table walker walks requested
system.cpu.itb.stage2_mmu.stage2_tlb.write_accesses            0                       # DTB write accesses
system.cpu.itb.stage2_mmu.stage2_tlb.write_hits            0                       # DTB write hits
system.cpu.itb.stage2_mmu.stage2_tlb.write_misses            0                       # DTB write misses
system.cpu.itb.walker.walkRequestOrigin_Requested::Data            0                       # Table walker requests started/completed, data/inst
system.cpu.itb.walker.walkRequestOrigin_Requested::Inst            0                       # Table walker requests started/completed, data/inst
system.cpu.itb.walker.walkRequestOrigin_Requested::total            0                       # Table walker requests started/completed, data/inst
system.cpu.itb.walker.walkRequestOrigin_Completed::Data            0                       # Table walker requests started/completed, data/inst
system.cpu.itb.walker.walkRequestOrigin_Completed::Inst            0                       # Table walker requests started/completed, data/inst
system.cpu.itb.walker.walkRequestOrigin_Completed::total            0                       # Table walker requests started/completed, data/inst
system.cpu.itb.walker.walkRequestOrigin::total            0                       # Table walker requests started/completed, data/inst
system.cpu.itb.walker.walks                         0                       # Table walker walks requested
system.cpu.itb.write_accesses                       0                       # DTB write accesses
system.cpu.itb.write_hits                           0                       # DTB write hits
system.cpu.itb.write_misses                         0                       # DTB write misses
system.cpu.numCycles                        175107873                       # number of cpu cycles simulated
system.cpu.numFetchSuspends                         0                       # Number of times Execute suspended instruction fetching
system.cpu.numWorkItemsCompleted                    0                       # number of work items this cpu completed
system.cpu.numWorkItemsStarted                      0                       # number of work items this cpu started
system.cpu.op_class_0::No_OpClass                   0      0.00%      0.00% # Class of committed instruction
system.cpu.op_class_0::IntAlu                46531437     46.44%     46.44% # Class of committed instruction
system.cpu.op_class_0::IntMult                  20720      0.02%     46.46% # Class of committed instruction
system.cpu.op_class_0::IntDiv                       0      0.00%     46.46% # Class of committed instruction
system.cpu.op_class_0::FloatAdd                     0      0.00%     46.46% # Class of committed instruction
system.cpu.op_class_0::FloatCmp                     0      0.00%     46.46% # Class of committed instruction
system.cpu.op_class_0::FloatCvt                     0      0.00%     46.46% # Class of committed instruction
system.cpu.op_class_0::FloatMult                    0      0.00%     46.46% # Class of committed instruction
system.cpu.op_class_0::FloatMultAcc                 0      0.00%     46.46% # Class of committed instruction
system.cpu.op_class_0::FloatDiv                     0      0.00%     46.46% # Class of committed instruction
system.cpu.op_class_0::FloatMisc                    0      0.00%     46.46% # Class of committed instruction
system.cpu.op_class_0::FloatSqrt                    0      0.00%     46.46% # Class of committed instruction
system.cpu.op_class_0::SimdAdd                      0      0.00%     46.46% # Class of committed instruction
system.cpu.op_class_0::SimdAddAcc                   0      0.00%     46.46% # Class of committed instruction
system.cpu.op_class_0::SimdAlu                      0      0.00%     46.46% # Class of committed instruction
system.cpu.op_class_0::SimdCmp                      0      0.00%     46.46% # Class of committed instruction
system.cpu.op_class_0::SimdCvt                      0      0.00%     46.46% # Class of committed instruction
system.cpu.op_class_0::SimdMisc                     0      0.00%     46.46% # Class of committed instruction
system.cpu.op_class_0::SimdMult                     0      0.00%     46.46% # Class of committed instruction
system.cpu.op_class_0::SimdMultAcc                  0      0.00%     46.46% # Class of committed instruction
system.cpu.op_class_0::SimdShift                    0      0.00%     46.46% # Class of committed instruction
system.cpu.op_class_0::SimdShiftAcc                 0      0.00%     46.46% # Class of committed instruction
system.cpu.op_class_0::SimdDiv                      0      0.00%     46.46% # Class of committed instruction
system.cpu.op_class_0::SimdSqrt                     0      0.00%     46.46% # Class of committed instruction
system.cpu.op_class_0::SimdFloatAdd                 0      0.00%     46.46% # Class of committed instruction
system.cpu.op_class_0::SimdFloatAlu                 0      0.00%     46.46% # Class of committed instruction
system.cpu.op_class_0::SimdFloatCmp                 0      0.00%     46.46% # Class of committed instruction
system.cpu.op_class_0::SimdFloatCvt                 0      0.00%     46.46% # Class of committed instruction
system.cpu.op_class_0::SimdFloatDiv                 0      0.00%     46.46% # Class of committed instruction
system.cpu.op_class_0::SimdFloatMisc               18      0.00%     46.46% # Class of committed instruction
system.cpu.op_class_0::SimdFloatMult                0      0.00%     46.46% # Class of committed instruction
system.cpu.op_class_0::SimdFloatMultAcc             0      0.00%     46.46% # Class of committed instruction
system.cpu.op_class_0::SimdFloatSqrt                0      0.00%     46.46% # Class of committed instruction
system.cpu.op_class_0::SimdReduceAdd                0      0.00%     46.46% # Class of committed instruction
system.cpu.op_class_0::SimdReduceAlu                0      0.00%     46.46% # Class of committed instruction
system.cpu.op_class_0::SimdReduceCmp                0      0.00%     46.46% # Class of committed instruction
system.cpu.op_class_0::SimdFloatReduceAdd            0      0.00%     46.46% # Class of committed instruction
system.cpu.op_class_0::SimdFloatReduceCmp            0      0.00%     46.46% # Class of committed instruction
system.cpu.op_class_0::SimdAes                      0      0.00%     46.46% # Class of committed instruction
system.cpu.op_class_0::SimdAesMix                   0      0.00%     46.46% # Class of committed instruction
system.cpu.op_class_0::SimdSha1Hash                 0      0.00%     46.46% # Class of committed instruction
system.cpu.op_class_0::SimdSha1Hash2                0      0.00%     46.46% # Class of committed instruction
system.cpu.op_class_0::SimdSha256Hash               0      0.00%     46.46% # Class of committed instruction
system.cpu.op_class_0::SimdSha256Hash2              0      0.00%     46.46% # Class of committed instruction
system.cpu.op_class_0::SimdShaSigma2                0      0.00%     46.46% # Class of committed instruction
system.cpu.op_class_0::SimdShaSigma3                0      0.00%     46.46% # Class of committed instruction
system.cpu.op_class_0::SimdPredAlu                  0      0.00%     46.46% # Class of committed instruction
system.cpu.op_class_0::MemRead               42693580     42.61%     89.07% # Class of committed instruction
system.cpu.op_class_0::MemWrite              10950614     10.93%    100.00% # Class of committed instruction
system.cpu.op_class_0::FloatMemRead                 0      0.00%    100.00% # Class of committed instruction
system.cpu.op_class_0::FloatMemWrite                0      0.00%    100.00% # Class of committed instruction
system.cpu.op_class_0::IprAccess                    0      0.00%    100.00% # Class of committed instruction
system.cpu.op_class_0::InstPrefetch                 0      0.00%    100.00% # Class of committed instruction
system.cpu.op_class_0::total                100196369                       # Class of committed instruction
system.cpu.tickCycles                       132762219                       # Number of cycles that the object actually ticked
system.cpu.workload.numSyscalls                    84                       # Number of system calls
system.membus.snoop_filter.hit_multi_requests            0                       # Number of requests hitting in the snoop filter with multiple (>1) holders of the requested data.
system.membus.snoop_filter.hit_multi_snoops            0                       # Number of snoops hitting in the snoop filter with multiple (>1) holders of the requested data.
system.membus.snoop_filter.hit_single_requests       199851                       # Number of requests hitting in the snoop filter with a single holder of the requested data.
system.membus.snoop_filter.hit_single_snoops            0                       # Number of snoops hitting in the snoop filter with a single holder of the requested data.
system.membus.snoop_filter.tot_requests        404020                       # Total number of requests made to the snoop filter.
system.membus.snoop_filter.tot_snoops               0                       # Total number of snoops made to the snoop filter.
system.tol2bus.snoop_filter.hit_multi_requests          168                       # Number of requests hitting in the snoop filter with multiple (>1) holders of the requested data.
system.tol2bus.snoop_filter.hit_multi_snoops            7                       # Number of snoops hitting in the snoop filter with multiple (>1) holders of the requested data.
system.tol2bus.snoop_filter.hit_single_requests       708504                       # Number of requests hitting in the snoop filter with a single holder of the requested data.
system.tol2bus.snoop_filter.hit_single_snoops          980                       # Number of snoops hitting in the snoop filter with a single holder of the requested data.
system.tol2bus.snoop_filter.tot_requests      1417759                       # Total number of requests made to the snoop filter.
system.tol2bus.snoop_filter.tot_snoops            987                       # Total number of snoops made to the snoop filter.
system.membus.pwrStateResidencyTicks::UNDEFINED  87553936500                       # Cumulative time (in ticks) in various power states
system.membus.trans_dist::ReadResp              73798                       # Transaction distribution
system.membus.trans_dist::WritebackDirty       151624                       # Transaction distribution
system.membus.trans_dist::CleanEvict            48209                       # Transaction distribution
system.membus.trans_dist::ReadExReq            130389                       # Transaction distribution
system.membus.trans_dist::ReadExResp           130388                       # Transaction distribution
system.membus.trans_dist::ReadSharedReq         73798                       # Transaction distribution
system.membus.pkt_count_system.l2.mem_side::system.mem_ctrls.port       608206                       # Packet count per connected master and slave (bytes)
system.membus.pkt_count::total                 608206                       # Packet count per connected master and slave (bytes)
system.membus.pkt_size_system.l2.mem_side::system.mem_ctrls.port     45543680                       # Cumulative packet size per connected master and slave (bytes)
system.membus.pkt_size::total                45543680                       # Cumulative packet size per connected master and slave (bytes)
system.membus.snoops                                0                       # Total snoops (count)
system.membus.snoopTraffic                          0                       # Total snoop traffic (bytes)
system.membus.snoop_fanout::samples            204187                       # Request fanout histogram
system.membus.snoop_fanout::mean                    0                       # Request fanout histogram
system.membus.snoop_fanout::stdev                   0                       # Request fanout histogram
system.membus.snoop_fanout::underflows              0      0.00%      0.00% # Request fanout histogram
system.membus.snoop_fanout::0                  204187    100.00%    100.00% # Request fanout histogram
system.membus.snoop_fanout::1                       0      0.00%    100.00% # Request fanout histogram
system.membus.snoop_fanout::overflows               0      0.00%    100.00% # Request fanout histogram
system.membus.snoop_fanout::min_value               0                       # Request fanout histogram
system.membus.snoop_fanout::max_value               0                       # Request fanout histogram
system.membus.snoop_fanout::total              204187                       # Request fanout histogram
system.membus.respLayer1.occupancy         1925764750                       # Layer occupancy (ticks)
system.membus.respLayer1.utilization              2.2                       # Layer utilization (%)
system.membus.reqLayer0.occupancy          1664261000                       # Layer occupancy (ticks)
system.membus.reqLayer0.utilization               1.9                       # Layer utilization (%)
system.tol2bus.pwrStateResidencyTicks::UNDEFINED  87553936500                       # Cumulative time (in ticks) in various power states
system.tol2bus.trans_dist::ReadResp            420041                       # Transaction distribution
system.tol2bus.trans_dist::WritebackDirty       797066                       # Transaction distribution
system.tol2bus.trans_dist::WritebackClean          304                       # Transaction distribution
system.tol2bus.trans_dist::CleanEvict          111909                       # Transaction distribution
system.tol2bus.trans_dist::ReadExReq           289214                       # Transaction distribution
system.tol2bus.trans_dist::ReadExResp          289213                       # Transaction distribution
system.tol2bus.trans_dist::ReadCleanReq           542                       # Transaction distribution
system.tol2bus.trans_dist::ReadSharedReq       419499                       # Transaction distribution
system.tol2bus.pkt_count_system.cpu.icache.mem_side::system.l2.cpu_side         1388                       # Packet count per connected master and slave (bytes)
system.tol2bus.pkt_count_system.cpu.dcache.mem_side::system.l2.cpu_side      2125625                       # Packet count per connected master and slave (bytes)
system.tol2bus.pkt_count::total               2127013                       # Packet count per connected master and slave (bytes)
system.tol2bus.pkt_size_system.cpu.icache.mem_side::system.l2.cpu_side       108288                       # Cumulative packet size per connected master and slave (bytes)
system.tol2bus.pkt_size_system.cpu.dcache.mem_side::system.l2.cpu_side    173331712                       # Cumulative packet size per connected master and slave (bytes)
system.tol2bus.pkt_size::total              173440000                       # Cumulative packet size per connected master and slave (bytes)
system.tol2bus.snoops                          200775                       # Total snoops (count)
system.tol2bus.snoopTraffic                  19407872                       # Total snoop traffic (bytes)
system.tol2bus.snoop_fanout::samples           910030                       # Request fanout histogram
system.tol2bus.snoop_fanout::mean            0.001277                       # Request fanout histogram
system.tol2bus.snoop_fanout::stdev           0.035925                       # Request fanout histogram
system.tol2bus.snoop_fanout::underflows             0      0.00%      0.00% # Request fanout histogram
system.tol2bus.snoop_fanout::0                 908875     99.87%     99.87% # Request fanout histogram
system.tol2bus.snoop_fanout::1                   1148      0.13%    100.00% # Request fanout histogram
system.tol2bus.snoop_fanout::2                      7      0.00%    100.00% # Request fanout histogram
system.tol2bus.snoop_fanout::overflows              0      0.00%    100.00% # Request fanout histogram
system.tol2bus.snoop_fanout::min_value              0                       # Request fanout histogram
system.tol2bus.snoop_fanout::max_value              2                       # Request fanout histogram
system.tol2bus.snoop_fanout::total             910030                       # Request fanout histogram
system.tol2bus.reqLayer0.occupancy         2000371500                       # Layer occupancy (ticks)
system.tol2bus.reqLayer0.utilization              2.3                       # Layer utilization (%)
system.tol2bus.respLayer1.occupancy        1771782495                       # Layer occupancy (ticks)
system.tol2bus.respLayer1.utilization             2.0                       # Layer utilization (%)
system.tol2bus.respLayer0.occupancy           1355000                       # Layer occupancy (ticks)
system.tol2bus.respLayer0.utilization             0.0                       # Layer utilization (%)
system.voltage_domain.voltage                       1                       # Voltage in Volts
system.clk_domain.clock                          1000                       # Clock period in ticks
system.l2.pwrStateResidencyTicks::UNDEFINED  87553936500                       # Cumulative time (in ticks) in various power states
system.l2.demand_hits::.cpu.inst                  114                       # number of demand (read+write) hits
system.l2.demand_hits::.cpu.data               504949                       # number of demand (read+write) hits
system.l2.demand_hits::total                   505063                       # number of demand (read+write) hits
system.l2.overall_hits::.cpu.inst                 114                       # number of overall hits
system.l2.overall_hits::.cpu.data              504949                       # number of overall hits
system.l2.overall_hits::total                  505063                       # number of overall hits
system.l2.demand_misses::.cpu.inst                428                       # number of demand (read+write) misses
system.l2.demand_misses::.cpu.data             203764                       # number of demand (read+write) misses
system.l2.demand_misses::total                 204192                       # number of demand (read+write) misses
system.l2.overall_misses::.cpu.inst               428                       # number of overall misses
system.l2.overall_misses::.cpu.data            203764                       # number of overall misses
system.l2.overall_misses::total                204192                       # number of overall misses
system.l2.demand_miss_latency::.cpu.inst     37049500                       # number of demand (read+write) miss cycles
system.l2.demand_miss_latency::.cpu.data  19472445500                       # number of demand (read+write) miss cycles
system.l2.demand_miss_latency::total      19509495000                       # number of demand (read+write) miss cycles
system.l2.overall_miss_latency::.cpu.inst     37049500                       # number of overall miss cycles
system.l2.overall_miss_latency::.cpu.data  19472445500                       # number of overall miss cycles
system.l2.overall_miss_latency::total     19509495000                       # number of overall miss cycles
system.l2.demand_accesses::.cpu.inst              542                       # number of demand (read+write) accesses
system.l2.demand_accesses::.cpu.data           708713                       # number of demand (read+write) accesses
system.l2.demand_accesses::total               709255                       # number of demand (read+write) accesses
system.l2.overall_accesses::.cpu.inst             542                       # number of overall (read+write) accesses
system.l2.overall_accesses::.cpu.data          708713                       # number of overall (read+write) accesses
system.l2.overall_accesses::total              709255                       # number of overall (read+write) accesses
system.l2.demand_miss_rate::.cpu.inst        0.789668                       # miss rate for demand accesses
system.l2.demand_miss_rate::.cpu.data        0.287513                       # miss rate for demand accesses
system.l2.demand_miss_rate::total            0.287896                       # miss rate for demand accesses
system.l2.overall_miss_rate::.cpu.inst       0.789668                       # miss rate for overall accesses
system.l2.overall_miss_rate::.cpu.data       0.287513                       # miss rate for overall accesses
system.l2.overall_miss_rate::total           0.287896                       # miss rate for overall accesses
system.l2.demand_avg_miss_latency::.cpu.inst 86564.252336                       # average overall miss latency
system.l2.demand_avg_miss_latency::.cpu.data 95563.718321                       # average overall miss latency
system.l2.demand_avg_miss_latency::total 95544.854843                       # average overall miss latency
system.l2.overall_avg_miss_latency::.cpu.inst 86564.252336                       # average overall miss latency
system.l2.overall_avg_miss_latency::.cpu.data 95563.718321                       # average overall miss latency
system.l2.overall_avg_miss_latency::total 95544.854843                       # average overall miss latency
system.l2.blocked_cycles::no_mshrs                  0                       # number of cycles access was blocked
system.l2.blocked_cycles::no_targets                0                       # number of cycles access was blocked
system.l2.blocked::no_mshrs                         0                       # number of cycles access was blocked
system.l2.blocked::no_targets                       0                       # number of cycles access was blocked
system.l2.avg_blocked_cycles::no_mshrs            nan                       # average number of cycles each access was blocked
system.l2.avg_blocked_cycles::no_targets          nan                       # average number of cycles each access was blocked
system.l2.writebacks::.writebacks              151624                       # number of writebacks
system.l2.writebacks::total                    151624                       # number of writebacks
system.l2.demand_mshr_hits::.cpu.data               5                       # number of demand (read+write) MSHR hits
system.l2.demand_mshr_hits::total                   5                       # number of demand (read+write) MSHR hits
system.l2.overall_mshr_hits::.cpu.data              5                       # number of overall MSHR hits
system.l2.overall_mshr_hits::total                  5                       # number of overall MSHR hits
system.l2.demand_mshr_misses::.cpu.inst           428                       # number of demand (read+write) MSHR misses
system.l2.demand_mshr_misses::.cpu.data        203759                       # number of demand (read+write) MSHR misses
system.l2.demand_mshr_misses::total            204187                       # number of demand (read+write) MSHR misses
system.l2.overall_mshr_misses::.cpu.inst          428                       # number of overall MSHR misses
system.l2.overall_mshr_misses::.cpu.data       203759                       # number of overall MSHR misses
system.l2.overall_mshr_misses::total           204187                       # number of overall MSHR misses
system.l2.demand_mshr_miss_latency::.cpu.inst     32769500                       # number of demand (read+write) MSHR miss cycles
system.l2.demand_mshr_miss_latency::.cpu.data  17434516000                       # number of demand (read+write) MSHR miss cycles
system.l2.demand_mshr_miss_latency::total  17467285500                       # number of demand (read+write) MSHR miss cycles
system.l2.overall_mshr_miss_latency::.cpu.inst     32769500                       # number of overall MSHR miss cycles
system.l2.overall_mshr_miss_latency::.cpu.data  17434516000                       # number of overall MSHR miss cycles
system.l2.overall_mshr_miss_latency::total  17467285500                       # number of overall MSHR miss cycles
system.l2.demand_mshr_miss_rate::.cpu.inst     0.789668                       # mshr miss rate for demand accesses
system.l2.demand_mshr_miss_rate::.cpu.data     0.287506                       # mshr miss rate for demand accesses
system.l2.demand_mshr_miss_rate::total       0.287889                       # mshr miss rate for demand accesses
system.l2.overall_mshr_miss_rate::.cpu.inst     0.789668                       # mshr miss rate for overall accesses
system.l2.overall_mshr_miss_rate::.cpu.data     0.287506                       # mshr miss rate for overall accesses
system.l2.overall_mshr_miss_rate::total      0.287889                       # mshr miss rate for overall accesses
system.l2.demand_avg_mshr_miss_latency::.cpu.inst 76564.252336                       # average overall mshr miss latency
system.l2.demand_avg_mshr_miss_latency::.cpu.data 85564.397155                       # average overall mshr miss latency
system.l2.demand_avg_mshr_miss_latency::total 85545.531792                       # average overall mshr miss latency
system.l2.overall_avg_mshr_miss_latency::.cpu.inst 76564.252336                       # average overall mshr miss latency
system.l2.overall_avg_mshr_miss_latency::.cpu.data 85564.397155                       # average overall mshr miss latency
system.l2.overall_avg_mshr_miss_latency::total 85545.531792                       # average overall mshr miss latency
system.l2.replacements                         200775                       # number of replacements
system.l2.WritebackDirty_hits::.writebacks       645442                       # number of WritebackDirty hits
system.l2.WritebackDirty_hits::total           645442                       # number of WritebackDirty hits
system.l2.WritebackDirty_accesses::.writebacks       645442                       # number of WritebackDirty accesses(hits+misses)
system.l2.WritebackDirty_accesses::total       645442                       # number of WritebackDirty accesses(hits+misses)
system.l2.WritebackClean_hits::.writebacks          291                       # number of WritebackClean hits
system.l2.WritebackClean_hits::total              291                       # number of WritebackClean hits
system.l2.WritebackClean_accesses::.writebacks          291                       # number of WritebackClean accesses(hits+misses)
system.l2.WritebackClean_accesses::total          291                       # number of WritebackClean accesses(hits+misses)
system.l2.CleanEvict_mshr_misses::.writebacks           45                       # number of CleanEvict MSHR misses
system.l2.CleanEvict_mshr_misses::total            45                       # number of CleanEvict MSHR misses
system.l2.CleanEvict_mshr_miss_rate::.writebacks          inf                       # mshr miss rate for CleanEvict accesses
system.l2.CleanEvict_mshr_miss_rate::total          inf                       # mshr miss rate for CleanEvict accesses
system.l2.ReadExReq_hits::.cpu.data            158825                       # number of ReadExReq hits
system.l2.ReadExReq_hits::total                158825                       # number of ReadExReq hits
system.l2.ReadExReq_misses::.cpu.data          130389                       # number of ReadExReq misses
system.l2.ReadExReq_misses::total              130389                       # number of ReadExReq misses
system.l2.ReadExReq_miss_latency::.cpu.data  12704344500                       # number of ReadExReq miss cycles
system.l2.ReadExReq_miss_latency::total   12704344500                       # number of ReadExReq miss cycles
system.l2.ReadExReq_accesses::.cpu.data        289214                       # number of ReadExReq accesses(hits+misses)
system.l2.ReadExReq_accesses::total            289214                       # number of ReadExReq accesses(hits+misses)
system.l2.ReadExReq_miss_rate::.cpu.data     0.450839                       # miss rate for ReadExReq accesses
system.l2.ReadExReq_miss_rate::total         0.450839                       # miss rate for ReadExReq accesses
system.l2.ReadExReq_avg_miss_latency::.cpu.data 97434.173895                       # average ReadExReq miss latency
system.l2.ReadExReq_avg_miss_latency::total 97434.173895                       # average ReadExReq miss latency
system.l2.ReadExReq_mshr_misses::.cpu.data       130389                       # number of ReadExReq MSHR misses
system.l2.ReadExReq_mshr_misses::total         130389                       # number of ReadExReq MSHR misses
system.l2.ReadExReq_mshr_miss_latency::.cpu.data  11400464500                       # number of ReadExReq MSHR miss cycles
system.l2.ReadExReq_mshr_miss_latency::total  11400464500                       # number of ReadExReq MSHR miss cycles
system.l2.ReadExReq_mshr_miss_rate::.cpu.data     0.450839                       # mshr miss rate for ReadExReq accesses
system.l2.ReadExReq_mshr_miss_rate::total     0.450839                       # mshr miss rate for ReadExReq accesses
system.l2.ReadExReq_avg_mshr_miss_latency::.cpu.data 87434.250589                       # average ReadExReq mshr miss latency
system.l2.ReadExReq_avg_mshr_miss_latency::total 87434.250589                       # average ReadExReq mshr miss latency
system.l2.ReadCleanReq_hits::.cpu.inst            114                       # number of ReadCleanReq hits
system.l2.ReadCleanReq_hits::total                114                       # number of ReadCleanReq hits
system.l2.ReadCleanReq_misses::.cpu.inst          428                       # number of ReadCleanReq misses
system.l2.ReadCleanReq_misses::total              428                       # number of ReadCleanReq misses
system.l2.ReadCleanReq_miss_latency::.cpu.inst     37049500                       # number of ReadCleanReq miss cycles
system.l2.ReadCleanReq_miss_latency::total     37049500                       # number of ReadCleanReq miss cycles
system.l2.ReadCleanReq_accesses::.cpu.inst          542                       # number of ReadCleanReq accesses(hits+misses)
system.l2.ReadCleanReq_accesses::total            542                       # number of ReadCleanReq accesses(hits+misses)
system.l2.ReadCleanReq_miss_rate::.cpu.inst     0.789668                       # miss rate for ReadCleanReq accesses
system.l2.ReadCleanReq_miss_rate::total      0.789668                       # miss rate for ReadCleanReq accesses
system.l2.ReadCleanReq_avg_miss_latency::.cpu.inst 86564.252336                       # average ReadCleanReq miss latency
system.l2.ReadCleanReq_avg_miss_latency::total 86564.252336                       # average ReadCleanReq miss latency
system.l2.ReadCleanReq_mshr_misses::.cpu.inst          428                       # number of ReadCleanReq MSHR misses
system.l2.ReadCleanReq_mshr_misses::total          428                       # number of ReadCleanReq MSHR misses
system.l2.ReadCleanReq_mshr_miss_latency::.cpu.inst     32769500                       # number of ReadCleanReq MSHR miss cycles
system.l2.ReadCleanReq_mshr_miss_latency::total     32769500                       # number of ReadCleanReq MSHR miss cycles
system.l2.ReadCleanReq_mshr_miss_rate::.cpu.inst     0.789668                       # mshr miss rate for ReadCleanReq accesses
system.l2.ReadCleanReq_mshr_miss_rate::total     0.789668                       # mshr miss rate for ReadCleanReq accesses
system.l2.ReadCleanReq_avg_mshr_miss_latency::.cpu.inst 76564.252336                       # average ReadCleanReq mshr miss latency
system.l2.ReadCleanReq_avg_mshr_miss_latency::total 76564.252336                       # average ReadCleanReq mshr miss latency
system.l2.ReadSharedReq_hits::.cpu.data        346124                       # number of ReadSharedReq hits
system.l2.ReadSharedReq_hits::total            346124                       # number of ReadSharedReq hits
system.l2.ReadSharedReq_misses::.cpu.data        73375                       # number of ReadSharedReq misses
system.l2.ReadSharedReq_misses::total           73375                       # number of ReadSharedReq misses
system.l2.ReadSharedReq_miss_latency::.cpu.data   6768101000                       # number of ReadSharedReq miss cycles
system.l2.ReadSharedReq_miss_latency::total   6768101000                       # number of ReadSharedReq miss cycles
system.l2.ReadSharedReq_accesses::.cpu.data       419499                       # number of ReadSharedReq accesses(hits+misses)
system.l2.ReadSharedReq_accesses::total        419499                       # number of ReadSharedReq accesses(hits+misses)
system.l2.ReadSharedReq_miss_rate::.cpu.data     0.174911                       # miss rate for ReadSharedReq accesses
system.l2.ReadSharedReq_miss_rate::total     0.174911                       # miss rate for ReadSharedReq accesses
system.l2.ReadSharedReq_avg_miss_latency::.cpu.data 92239.877342                       # average ReadSharedReq miss latency
system.l2.ReadSharedReq_avg_miss_latency::total 92239.877342                       # average ReadSharedReq miss latency
system.l2.ReadSharedReq_mshr_hits::.cpu.data            5                       # number of ReadSharedReq MSHR hits
system.l2.ReadSharedReq_mshr_hits::total            5                       # number of ReadSharedReq MSHR hits
system.l2.ReadSharedReq_mshr_misses::.cpu.data        73370                       # number of ReadSharedReq MSHR misses
system.l2.ReadSharedReq_mshr_misses::total        73370                       # number of ReadSharedReq MSHR misses
system.l2.ReadSharedReq_mshr_miss_latency::.cpu.data   6034051500                       # number of ReadSharedReq MSHR miss cycles
system.l2.ReadSharedReq_mshr_miss_latency::total   6034051500                       # number of ReadSharedReq MSHR miss cycles
system.l2.ReadSharedReq_mshr_miss_rate::.cpu.data     0.174899                       # mshr miss rate for ReadSharedReq accesses
system.l2.ReadSharedReq_mshr_miss_rate::total     0.174899                       # mshr miss rate for ReadSharedReq accesses
system.l2.ReadSharedReq_avg_mshr_miss_latency::.cpu.data 82241.399755                       # average ReadSharedReq mshr miss latency
system.l2.ReadSharedReq_avg_mshr_miss_latency::total 82241.399755                       # average ReadSharedReq mshr miss latency
system.l2.tags.pwrStateResidencyTicks::UNDEFINED  87553936500                       # Cumulative time (in ticks) in various power states
system.l2.tags.tagsinuse                  4020.039588                       # Cycle average of tags in use
system.l2.tags.total_refs                     1417540                       # Total number of references to valid blocks.
system.l2.tags.sampled_refs                    204871                       # Sample count of references to valid blocks.
system.l2.tags.avg_refs                      6.919183                       # Average number of references to valid blocks.
system.l2.tags.warmup_cycle                     82000                       # Cycle when the warmup percentage was hit.
system.l2.tags.occ_blocks::.writebacks      19.747374                       # Average occupied blocks per requestor
system.l2.tags.occ_blocks::.cpu.inst        16.009563                       # Average occupied blocks per requestor
system.l2.tags.occ_blocks::.cpu.data      3984.282651                       # Average occupied blocks per requestor
system.l2.tags.occ_percent::.writebacks      0.004821                       # Average percentage of cache occupancy
system.l2.tags.occ_percent::.cpu.inst        0.003909                       # Average percentage of cache occupancy
system.l2.tags.occ_percent::.cpu.data        0.972725                       # Average percentage of cache occupancy
system.l2.tags.occ_percent::total            0.981455                       # Average percentage of cache occupancy
system.l2.tags.occ_task_id_blocks::1024          4096                       # Occupied blocks per task id
system.l2.tags.age_task_id_blocks_1024::0          133                       # Occupied blocks per task id
system.l2.tags.age_task_id_blocks_1024::1          390                       # Occupied blocks per task id
system.l2.tags.age_task_id_blocks_1024::2         2660                       # Occupied blocks per task id
system.l2.tags.age_task_id_blocks_1024::3          907                       # Occupied blocks per task id
system.l2.tags.age_task_id_blocks_1024::4            6                       # Occupied blocks per task id
system.l2.tags.occ_task_id_percent::1024            1                       # Percentage of cache occupancy per task id
system.l2.tags.tag_accesses                   5875235                       # Number of tag accesses
system.l2.tags.data_accesses                  5875235                       # Number of data accesses
system.cpu_voltage_domain.voltage                   1                       # Voltage in Volts
system.mem_ctrls.pwrStateResidencyTicks::UNDEFINED  87553936500                       # Cumulative time (in ticks) in various power states
system.mem_ctrls.bytes_read::.cpu.inst          54784                       # Number of bytes read from this memory
system.mem_ctrls.bytes_read::.cpu.data       26081152                       # Number of bytes read from this memory
system.mem_ctrls.bytes_read::total           26135936                       # Number of bytes read from this memory
system.mem_ctrls.bytes_inst_read::.cpu.inst        54784                       # Number of instructions bytes read from this memory
system.mem_ctrls.bytes_inst_read::total         54784                       # Number of instructions bytes read from this memory
system.mem_ctrls.bytes_written::.writebacks     19407872                       # Number of bytes written to this memory
system.mem_ctrls.bytes_written::total        19407872                       # Number of bytes written to this memory
system.mem_ctrls.num_reads::.cpu.inst             428                       # Number of read requests responded to by this memory
system.mem_ctrls.num_reads::.cpu.data          203759                       # Number of read requests responded to by this memory
system.mem_ctrls.num_reads::total              204187                       # Number of read requests responded to by this memory
system.mem_ctrls.num_writes::.writebacks       151624                       # Number of write requests responded to by this memory
system.mem_ctrls.num_writes::total             151624                       # Number of write requests responded to by this memory
system.mem_ctrls.bw_read::.cpu.inst            625717                       # Total read bandwidth from this memory (bytes/s)
system.mem_ctrls.bw_read::.cpu.data         297886686                       # Total read bandwidth from this memory (bytes/s)
system.mem_ctrls.bw_read::total             298512403                       # Total read bandwidth from this memory (bytes/s)
system.mem_ctrls.bw_inst_read::.cpu.inst       625717                       # Instruction read bandwidth from this memory (bytes/s)
system.mem_ctrls.bw_inst_read::total           625717                       # Instruction read bandwidth from this memory (bytes/s)
system.mem_ctrls.bw_write::.writebacks      221667612                       # Write bandwidth from this memory (bytes/s)
system.mem_ctrls.bw_write::total            221667612                       # Write bandwidth from this memory (bytes/s)
system.mem_ctrls.bw_total::.writebacks      221667612                       # Total bandwidth to/from this memory (bytes/s)
system.mem_ctrls.bw_total::.cpu.inst           625717                       # Total bandwidth to/from this memory (bytes/s)
system.mem_ctrls.bw_total::.cpu.data        297886686                       # Total bandwidth to/from this memory (bytes/s)
system.mem_ctrls.bw_total::total            520180015                       # Total bandwidth to/from this memory (bytes/s)
system.mem_ctrls.avgPriority_.writebacks::samples    303244.00                       # Average QoS priority value for accepted requests
system.mem_ctrls.avgPriority_.cpu.inst::samples       856.00                       # Average QoS priority value for accepted requests
system.mem_ctrls.avgPriority_.cpu.data::samples    406261.00                       # Average QoS priority value for accepted requests
system.mem_ctrls.priorityMinLatency      0.000000018750                       # per QoS priority minimum request to response latency (s)
system.mem_ctrls.priorityMaxLatency      0.019779516250                       # per QoS priority maximum request to response latency (s)
system.mem_ctrls.numReadWriteTurnArounds        17844                       # Number of turnarounds from READ to WRITE
system.mem_ctrls.numWriteReadTurnArounds        17844                       # Number of turnarounds from WRITE to READ
system.mem_ctrls.numStayReadState              761749                       # Number of times bus staying in READ state
system.mem_ctrls.numStayWriteState             285704                       # Number of times bus staying in WRITE state
system.mem_ctrls.readReqs                      204187                       # Number of read requests accepted
system.mem_ctrls.writeReqs                     151624                       # Number of write requests accepted
system.mem_ctrls.readBursts                    408374                       # Number of DRAM read bursts, including those serviced by the write queue
system.mem_ctrls.writeBursts                   303248                       # Number of DRAM write bursts, including those merged in the write queue
system.mem_ctrls.servicedByWrQ                   1257                       # Number of DRAM read bursts serviced by the write queue
system.mem_ctrls.mergedWrBursts                     4                       # Number of DRAM write bursts merged with an existing one
system.mem_ctrls.neitherReadNorWriteReqs            0                       # Number of requests that are neither read nor write
system.mem_ctrls.perBankRdBursts::0             26978                       # Per bank write bursts
system.mem_ctrls.perBankRdBursts::1             25774                       # Per bank write bursts
system.mem_ctrls.perBankRdBursts::2             24935                       # Per bank write bursts
system.mem_ctrls.perBankRdBursts::3             26547                       # Per bank write bursts
system.mem_ctrls.perBankRdBursts::4             29141                       # Per bank write bursts
system.mem_ctrls.perBankRdBursts::5             27030                       # Per bank write bursts
system.mem_ctrls.perBankRdBursts::6             24140                       # Per bank write bursts
system.mem_ctrls.perBankRdBursts::7             24240                       # Per bank write bursts
system.mem_ctrls.perBankRdBursts::8             26773                       # Per bank write bursts
system.mem_ctrls.perBankRdBursts::9             25800                       # Per bank write bursts
system.mem_ctrls.perBankRdBursts::10            23323                       # Per bank write bursts
system.mem_ctrls.perBankRdBursts::11            22728                       # Per bank write bursts
system.mem_ctrls.perBankRdBursts::12            24705                       # Per bank write bursts
system.mem_ctrls.perBankRdBursts::13            25665                       # Per bank write bursts
system.mem_ctrls.perBankRdBursts::14            23803                       # Per bank write bursts
system.mem_ctrls.perBankRdBursts::15            25535                       # Per bank write bursts
system.mem_ctrls.perBankWrBursts::0             20200                       # Per bank write bursts
system.mem_ctrls.perBankWrBursts::1             19096                       # Per bank write bursts
system.mem_ctrls.perBankWrBursts::2             18260                       # Per bank write bursts
system.mem_ctrls.perBankWrBursts::3             19984                       # Per bank write bursts
system.mem_ctrls.perBankWrBursts::4             22990                       # Per bank write bursts
system.mem_ctrls.perBankWrBursts::5             20614                       # Per bank write bursts
system.mem_ctrls.perBankWrBursts::6             17634                       # Per bank write bursts
system.mem_ctrls.perBankWrBursts::7             17660                       # Per bank write bursts
system.mem_ctrls.perBankWrBursts::8             20228                       # Per bank write bursts
system.mem_ctrls.perBankWrBursts::9             19392                       # Per bank write bursts
system.mem_ctrls.perBankWrBursts::10            17118                       # Per bank write bursts
system.mem_ctrls.perBankWrBursts::11            16618                       # Per bank write bursts
system.mem_ctrls.perBankWrBursts::12            18154                       # Per bank write bursts
system.mem_ctrls.perBankWrBursts::13            19046                       # Per bank write bursts
system.mem_ctrls.perBankWrBursts::14            17188                       # Per bank write bursts
system.mem_ctrls.perBankWrBursts::15            19032                       # Per bank write bursts
system.mem_ctrls.avgRdQLen                       2.12                       # Average read queue length when enqueuing
system.mem_ctrls.avgWrQLen                      24.50                       # Average write queue length when enqueuing
system.mem_ctrls.totQLat                   9435929750                       # Total ticks spent queuing
system.mem_ctrls.totBusLat                 2035585000                       # Total ticks spent in databus transfers
system.mem_ctrls.totMemAccLat             17069373500                       # Total ticks spent from burst creation until serviced by the DRAM
system.mem_ctrls.avgQLat                     23177.44                       # Average queueing delay per DRAM burst
system.mem_ctrls.avgBusLat                    5000.00                       # Average bus latency per DRAM burst
system.mem_ctrls.avgMemAccLat                41927.44                       # Average memory access latency per DRAM burst
system.mem_ctrls.numRdRetry                         0                       # Number of times read queue was full causing retry
system.mem_ctrls.numWrRetry                         0                       # Number of times write queue was full causing retry
system.mem_ctrls.readRowHits                   295553                       # Number of row buffer hits during reads
system.mem_ctrls.writeRowHits                  206729                       # Number of row buffer hits during writes
system.mem_ctrls.readRowHitRate                 72.60                       # Row buffer hit rate for reads
system.mem_ctrls.writeRowHitRate                68.17                       # Row buffer hit rate for writes
system.mem_ctrls.readPktSize::0                     0                       # Read request sizes (log2)
system.mem_ctrls.readPktSize::1                     0                       # Read request sizes (log2)
system.mem_ctrls.readPktSize::2                     0                       # Read request sizes (log2)
system.mem_ctrls.readPktSize::3                     0                       # Read request sizes (log2)
system.mem_ctrls.readPktSize::4                     0                       # Read request sizes (log2)
system.mem_ctrls.readPktSize::5                     0                       # Read request sizes (log2)
system.mem_ctrls.readPktSize::6                408374                       # Read request sizes (log2)
system.mem_ctrls.writePktSize::0                    0                       # Write request sizes (log2)
system.mem_ctrls.writePktSize::1                    0                       # Write request sizes (log2)
system.mem_ctrls.writePktSize::2                    0                       # Write request sizes (log2)
system.mem_ctrls.writePktSize::3                    0                       # Write request sizes (log2)
system.mem_ctrls.writePktSize::4                    0                       # Write request sizes (log2)
system.mem_ctrls.writePktSize::5                    0                       # Write request sizes (log2)
system.mem_ctrls.writePktSize::6               303248                       # Write request sizes (log2)
system.mem_ctrls.rdQLenPdf::0                  172513                       # What read queue length does an incoming req see
system.mem_ctrls.rdQLenPdf::1                  174103                       # What read queue length does an incoming req see
system.mem_ctrls.rdQLenPdf::2                   31062                       # What read queue length does an incoming req see
system.mem_ctrls.rdQLenPdf::3                   29422                       # What read queue length does an incoming req see
system.mem_ctrls.rdQLenPdf::4                       8                       # What read queue length does an incoming req see
system.mem_ctrls.rdQLenPdf::5                       7                       # What read queue length does an incoming req see
system.mem_ctrls.rdQLenPdf::6                       1                       # What read queue length does an incoming req see
system.mem_ctrls.rdQLenPdf::7                       1                       # What read queue length does an incoming req see
system.mem_ctrls.rdQLenPdf::8                       0                       # What read queue length does an incoming req see
system.mem_ctrls.rdQLenPdf::9                       0                       # What read queue length does an incoming req see
system.mem_ctrls.rdQLenPdf::10                      0                       # What read queue length does an incoming req see
system.mem_ctrls.rdQLenPdf::11                      0                       # What read queue length does an incoming req see
system.mem_ctrls.rdQLenPdf::12                      0                       # What read queue length does an incoming req see
system.mem_ctrls.rdQLenPdf::13                      0                       # What read queue length does an incoming req see
system.mem_ctrls.rdQLenPdf::14                      0                       # What read queue length does an incoming req see
system.mem_ctrls.rdQLenPdf::15                      0                       # What read queue length does an incoming req see
system.mem_ctrls.rdQLenPdf::16                      0                       # What read queue length does an incoming req see
system.mem_ctrls.rdQLenPdf::17                      0                       # What read queue length does an incoming req see
system.mem_ctrls.rdQLenPdf::18                      0                       # What read queue length does an incoming req see
system.mem_ctrls.rdQLenPdf::19                      0                       # What read queue length does an incoming req see
system.mem_ctrls.rdQLenPdf::20                      0                       # What read queue length does an incoming req see
system.mem_ctrls.rdQLenPdf::21                      0                       # What read queue length does an incoming req see
system.mem_ctrls.rdQLenPdf::22                      0                       # What read queue length does an incoming req see
system.mem_ctrls.rdQLenPdf::23                      0                       # What read queue length does an incoming req see
system.mem_ctrls.rdQLenPdf::24                      0                       # What read queue length does an incoming req see
system.mem_ctrls.rdQLenPdf::25                      0                       # What read queue length does an incoming req see
system.mem_ctrls.rdQLenPdf::26                      0                       # What read queue length does an incoming req see
system.mem_ctrls.rdQLenPdf::27                      0                       # What read queue length does an incoming req see
system.mem_ctrls.rdQLenPdf::28                      0                       # What read queue length does an incoming req see
system.mem_ctrls.rdQLenPdf::29                      0                       # What read queue length does an incoming req see
system.mem_ctrls.rdQLenPdf::30                      0                       # What read queue length does an incoming req see
system.mem_ctrls.rdQLenPdf::31                      0                       # What read queue length does an incoming req see
system.mem_ctrls.wrQLenPdf::0                       1                       # What write queue length does an incoming req see
system.mem_ctrls.wrQLenPdf::1                       1                       # What write queue length does an incoming req see
system.mem_ctrls.wrQLenPdf::2                       1                       # What write queue length does an incoming req see
system.mem_ctrls.wrQLenPdf::3                       1                       # What write queue length does an incoming req see
system.mem_ctrls.wrQLenPdf::4                       1                       # What write queue length does an incoming req see
system.mem_ctrls.wrQLenPdf::5                       1                       # What write queue length does an incoming req see
system.mem_ctrls.wrQLenPdf::6                       1                       # What write queue length does an incoming req see
system.mem_ctrls.wrQLenPdf::7                       1                       # What write queue length does an incoming req see
system.mem_ctrls.wrQLenPdf::8                       1                       # What write queue length does an incoming req see
system.mem_ctrls.wrQLenPdf::9                       1                       # What write queue length does an incoming req see
system.mem_ctrls.wrQLenPdf::10                      1                       # What write queue length does an incoming req see
system.mem_ctrls.wrQLenPdf::11                      1                       # What write queue length does an incoming req see
system.mem_ctrls.wrQLenPdf::12                      1                       # What write queue length does an incoming req see
system.mem_ctrls.wrQLenPdf::13                      1                       # What write queue length does an incoming req see
system.mem_ctrls.wrQLenPdf::14                      1                       # What write queue length does an incoming req see
system.mem_ctrls.wrQLenPdf::15                   7292                       # What write queue length does an incoming req see
system.mem_ctrls.wrQLenPdf::16                   7494                       # What write queue length does an incoming req see
system.mem_ctrls.wrQLenPdf::17                  13565                       # What write queue length does an incoming req see
system.mem_ctrls.wrQLenPdf::18                  14548                       # What write queue length does an incoming req see
system.mem_ctrls.wrQLenPdf::19                  15345                       # What write queue length does an incoming req see
system.mem_ctrls.wrQLenPdf::20                  18212                       # What write queue length does an incoming req see
system.mem_ctrls.wrQLenPdf::21                  18239                       # What write queue length does an incoming req see
system.mem_ctrls.wrQLenPdf::22                  18207                       # What write queue length does an incoming req see
system.mem_ctrls.wrQLenPdf::23                  18149                       # What write queue length does an incoming req see
system.mem_ctrls.wrQLenPdf::24                  18146                       # What write queue length does an incoming req see
system.mem_ctrls.wrQLenPdf::25                  18758                       # What write queue length does an incoming req see
system.mem_ctrls.wrQLenPdf::26                  20987                       # What write queue length does an incoming req see
system.mem_ctrls.wrQLenPdf::27                  20387                       # What write queue length does an incoming req see
system.mem_ctrls.wrQLenPdf::28                  18137                       # What write queue length does an incoming req see
system.mem_ctrls.wrQLenPdf::29                  18148                       # What write queue length does an incoming req see
system.mem_ctrls.wrQLenPdf::30                  18023                       # What write queue length does an incoming req see
system.mem_ctrls.wrQLenPdf::31                  17859                       # What write queue length does an incoming req see
system.mem_ctrls.wrQLenPdf::32                  17847                       # What write queue length does an incoming req see
system.mem_ctrls.wrQLenPdf::33                   3870                       # What write queue length does an incoming req see
system.mem_ctrls.wrQLenPdf::34                     13                       # What write queue length does an incoming req see
system.mem_ctrls.wrQLenPdf::35                      3                       # What write queue length does an incoming req see
system.mem_ctrls.wrQLenPdf::36                      0                       # What write queue length does an incoming req see
system.mem_ctrls.wrQLenPdf::37                      0                       # What write queue length does an incoming req see
system.mem_ctrls.wrQLenPdf::38                      0                       # What write queue length does an incoming req see
system.mem_ctrls.wrQLenPdf::39                      0                       # What write queue length does an incoming req see
system.mem_ctrls.wrQLenPdf::40                      0                       # What write queue length does an incoming req see
system.mem_ctrls.wrQLenPdf::41                      0                       # What write queue length does an incoming req see
system.mem_ctrls.wrQLenPdf::42                      0                       # What write queue length does an incoming req see
system.mem_ctrls.wrQLenPdf::43                      0                       # What write queue length does an incoming req see
system.mem_ctrls.wrQLenPdf::44                      0                       # What write queue length does an incoming req see
system.mem_ctrls.wrQLenPdf::45                      0                       # What write queue length does an incoming req see
system.mem_ctrls.wrQLenPdf::46                      0                       # What write queue length does an incoming req see
system.mem_ctrls.wrQLenPdf::47                      0                       # What write queue length does an incoming req see
system.mem_ctrls.wrQLenPdf::48                      0                       # What write queue length does an incoming req see
system.mem_ctrls.wrQLenPdf::49                      0                       # What write queue length does an incoming req see
system.mem_ctrls.wrQLenPdf::50                      0                       # What write queue length does an incoming req see
system.mem_ctrls.wrQLenPdf::51                      0                       # What write queue length does an incoming req see
system.mem_ctrls.wrQLenPdf::52                      0                       # What write queue length does an incoming req see
system.mem_ctrls.wrQLenPdf::53                      0                       # What write queue length does an incoming req see
system.mem_ctrls.wrQLenPdf::54                      0                       # What write queue length does an incoming req see
system.mem_ctrls.wrQLenPdf::55                      0                       # What write queue length does an incoming req see
system.mem_ctrls.wrQLenPdf::56                      0                       # What write queue length does an incoming req see
system.mem_ctrls.wrQLenPdf::57                      0                       # What write queue length does an incoming req see
system.mem_ctrls.wrQLenPdf::58                      0                       # What write queue length does an incoming req see
system.mem_ctrls.wrQLenPdf::59                      0                       # What write queue length does an incoming req see
system.mem_ctrls.wrQLenPdf::60                      0                       # What write queue length does an incoming req see
system.mem_ctrls.wrQLenPdf::61                      0                       # What write queue length does an incoming req see
system.mem_ctrls.wrQLenPdf::62                      0                       # What write queue length does an incoming req see
system.mem_ctrls.wrQLenPdf::63                      0                       # What write queue length does an incoming req see
system.mem_ctrls.bytesPerActivate::samples       208034                       # Bytes accessed per row activation
system.mem_ctrls.bytesPerActivate::mean    218.517819                       # Bytes accessed per row activation
system.mem_ctrls.bytesPerActivate::gmean   161.618648                       # Bytes accessed per row activation
system.mem_ctrls.bytesPerActivate::stdev   246.549977                       # Bytes accessed per row activation
system.mem_ctrls.bytesPerActivate::0-127        10443      5.02%      5.02% # Bytes accessed per row activation
system.mem_ctrls.bytesPerActivate::128-255       157812     75.86%     80.88% # Bytes accessed per row activation
system.mem_ctrls.bytesPerActivate::256-383        15843      7.62%     88.49% # Bytes accessed per row activation
system.mem_ctrls.bytesPerActivate::384-511         3305      1.59%     90.08% # Bytes accessed per row activation
system.mem_ctrls.bytesPerActivate::512-639         2085      1.00%     91.09% # Bytes accessed per row activation
system.mem_ctrls.bytesPerActivate::640-767         1581      0.76%     91.85% # Bytes accessed per row activation
system.mem_ctrls.bytesPerActivate::768-895         1033      0.50%     92.34% # Bytes accessed per row activation
system.mem_ctrls.bytesPerActivate::896-1023          830      0.40%     92.74% # Bytes accessed per row activation
system.mem_ctrls.bytesPerActivate::1024-1151        15102      7.26%    100.00% # Bytes accessed per row activation
system.mem_ctrls.bytesPerActivate::total       208034                       # Bytes accessed per row activation
system.mem_ctrls.rdPerTurnAround::samples        17844                       # Reads before turning the bus around for writes
system.mem_ctrls.rdPerTurnAround::mean      22.814223                       # Reads before turning the bus around for writes
system.mem_ctrls.rdPerTurnAround::gmean     20.326287                       # Reads before turning the bus around for writes
system.mem_ctrls.rdPerTurnAround::stdev     52.256789                       # Reads before turning the bus around for writes
system.mem_ctrls.rdPerTurnAround::0-127         17764     99.55%     99.55% # Reads before turning the bus around for writes
system.mem_ctrls.rdPerTurnAround::128-255           64      0.36%     99.91% # Reads before turning the bus around for writes
system.mem_ctrls.rdPerTurnAround::256-383            2      0.01%     99.92% # Reads before turning the bus around for writes
system.mem_ctrls.rdPerTurnAround::384-511            1      0.01%     99.93% # Reads before turning the bus around for writes
system.mem_ctrls.rdPerTurnAround::512-639            1      0.01%     99.93% # Reads before turning the bus around for writes
[...]
system.cpu.icache.ReadReq_avg_miss_latency::total 73235.239852                       # average ReadReq miss latency
system.cpu.icache.ReadReq_mshr_misses::.cpu.inst          542                       # number of ReadReq MSHR misses
system.cpu.icache.ReadReq_mshr_misses::total          542                       # number of ReadReq MSHR misses
system.cpu.icache.ReadReq_mshr_miss_latency::.cpu.inst     39151500                       # number of ReadReq MSHR miss cycles
system.cpu.icache.ReadReq_mshr_miss_latency::total     39151500                       # number of ReadReq MSHR miss cycles
system.cpu.icache.ReadReq_mshr_miss_rate::.cpu.inst     0.000067                       # mshr miss rate for ReadReq accesses
system.cpu.icache.ReadReq_mshr_miss_rate::total     0.000067                       # mshr miss rate for ReadReq accesses
system.cpu.icache.ReadReq_avg_mshr_miss_latency::.cpu.inst 72235.239852                       # average ReadReq mshr miss latency
system.cpu.icache.ReadReq_avg_mshr_miss_latency::total 72235.239852                       # average ReadReq mshr miss latency
system.cpu.icache.tags.pwrStateResidencyTicks::UNDEFINED  87553936500                       # Cumulative time (in ticks) in various power states
system.cpu.icache.tags.tagsinuse           205.593799                       # Cycle average of tags in use
system.cpu.icache.tags.total_refs             8051211                       # Total number of references to valid blocks.
system.cpu.icache.tags.sampled_refs               542                       # Sample count of references to valid blocks.
system.cpu.icache.tags.avg_refs          14854.632841                       # Average number of references to valid blocks.
system.cpu.icache.tags.warmup_cycle             92500                       # Cycle when the warmup percentage was hit.
system.cpu.icache.tags.occ_blocks::.cpu.inst   205.593799                       # Average occupied blocks per requestor
system.cpu.icache.tags.occ_percent::.cpu.inst     0.803101                       # Average percentage of cache occupancy
system.cpu.icache.tags.occ_percent::total     0.803101                       # Average percentage of cache occupancy
system.cpu.icache.tags.occ_task_id_blocks::1024          238                       # Occupied blocks per task id
system.cpu.icache.tags.age_task_id_blocks_1024::3           52                       # Occupied blocks per task id
system.cpu.icache.tags.age_task_id_blocks_1024::4          186                       # Occupied blocks per task id
system.cpu.icache.tags.occ_task_id_percent::1024     0.929688                       # Percentage of cache occupancy per task id
system.cpu.icache.tags.tag_accesses          16102964                       # Number of tag accesses
system.cpu.icache.tags.data_accesses         16102964                       # Number of data accesses
system.cpu.dtb.walker.pwrStateResidencyTicks::UNDEFINED  87553936500                       # Cumulative time (in ticks) in various power states
system.cpu.dtb.stage2_mmu.stage2_tlb.walker.pwrStateResidencyTicks::UNDEFINED  87553936500                       # Cumulative time (in ticks) in various power states
system.cpu.dcache.pwrStateResidencyTicks::UNDEFINED  87553936500                       # Cumulative time (in ticks) in various power states
system.cpu.dcache.demand_hits::.cpu.data     51329545                       # number of demand (read+write) hits
system.cpu.dcache.demand_hits::total         51329545                       # number of demand (read+write) hits
system.cpu.dcache.overall_hits::.cpu.data     51330109                       # number of overall hits
system.cpu.dcache.overall_hits::total        51330109                       # number of overall hits
system.cpu.dcache.demand_misses::.cpu.data       740490                       # number of demand (read+write) misses
system.cpu.dcache.demand_misses::total         740490                       # number of demand (read+write) misses
system.cpu.dcache.overall_misses::.cpu.data       748344                       # number of overall misses
system.cpu.dcache.overall_misses::total        748344                       # number of overall misses
system.cpu.dcache.demand_miss_latency::.cpu.data  28692562500                       # number of demand (read+write) miss cycles
system.cpu.dcache.demand_miss_latency::total  28692562500                       # number of demand (read+write) miss cycles
system.cpu.dcache.overall_miss_latency::.cpu.data  28692562500                       # number of overall miss cycles
system.cpu.dcache.overall_miss_latency::total  28692562500                       # number of overall miss cycles
system.cpu.dcache.demand_accesses::.cpu.data     52070035                       # number of demand (read+write) accesses
system.cpu.dcache.demand_accesses::total     52070035                       # number of demand (read+write) accesses
system.cpu.dcache.overall_accesses::.cpu.data     52078453                       # number of overall (read+write) accesses
system.cpu.dcache.overall_accesses::total     52078453                       # number of overall (read+write) accesses
system.cpu.dcache.demand_miss_rate::.cpu.data     0.014221                       # miss rate for demand accesses
system.cpu.dcache.demand_miss_rate::total     0.014221                       # miss rate for demand accesses
system.cpu.dcache.overall_miss_rate::.cpu.data     0.014370                       # miss rate for overall accesses
system.cpu.dcache.overall_miss_rate::total     0.014370                       # miss rate for overall accesses
system.cpu.dcache.demand_avg_miss_latency::.cpu.data 38748.075599                       # average overall miss latency
system.cpu.dcache.demand_avg_miss_latency::total 38748.075599                       # average overall miss latency
system.cpu.dcache.overall_avg_miss_latency::.cpu.data 38341.407828                       # average overall miss latency
system.cpu.dcache.overall_avg_miss_latency::total 38341.407828                       # average overall miss latency
system.cpu.dcache.blocked_cycles::no_mshrs            0                       # number of cycles access was blocked
system.cpu.dcache.blocked_cycles::no_targets            0                       # number of cycles access was blocked
system.cpu.dcache.blocked::no_mshrs                 0                       # number of cycles access was blocked
system.cpu.dcache.blocked::no_targets               0                       # number of cycles access was blocked
system.cpu.dcache.avg_blocked_cycles::no_mshrs          nan                       # average number of cycles each access was blocked
system.cpu.dcache.avg_blocked_cycles::no_targets          nan                       # average number of cycles each access was blocked
system.cpu.dcache.writebacks::.writebacks       645442                       # number of writebacks
system.cpu.dcache.writebacks::total            645442                       # number of writebacks
system.cpu.dcache.demand_mshr_hits::.cpu.data        35732                       # number of demand (read+write) MSHR hits
system.cpu.dcache.demand_mshr_hits::total        35732                       # number of demand (read+write) MSHR hits
system.cpu.dcache.overall_mshr_hits::.cpu.data        35732                       # number of overall MSHR hits
system.cpu.dcache.overall_mshr_hits::total        35732                       # number of overall MSHR hits
system.cpu.dcache.demand_mshr_misses::.cpu.data       704758                       # number of demand (read+write) MSHR misses
system.cpu.dcache.demand_mshr_misses::total       704758                       # number of demand (read+write) MSHR misses
system.cpu.dcache.overall_mshr_misses::.cpu.data       708713                       # number of overall MSHR misses
system.cpu.dcache.overall_mshr_misses::total       708713                       # number of overall MSHR misses
system.cpu.dcache.demand_mshr_miss_latency::.cpu.data  25544696000                       # number of demand (read+write) MSHR miss cycles
system.cpu.dcache.demand_mshr_miss_latency::total  25544696000                       # number of demand (read+write) MSHR miss cycles
system.cpu.dcache.overall_mshr_miss_latency::.cpu.data  25869448000                       # number of overall MSHR miss cycles
system.cpu.dcache.overall_mshr_miss_latency::total  25869448000                       # number of overall MSHR miss cycles
system.cpu.dcache.demand_mshr_miss_rate::.cpu.data     0.013535                       # mshr miss rate for demand accesses
system.cpu.dcache.demand_mshr_miss_rate::total     0.013535                       # mshr miss rate for demand accesses
system.cpu.dcache.overall_mshr_miss_rate::.cpu.data     0.013609                       # mshr miss rate for overall accesses
system.cpu.dcache.overall_mshr_miss_rate::total     0.013609                       # mshr miss rate for overall accesses
system.cpu.dcache.demand_avg_mshr_miss_latency::.cpu.data 36246.053255                       # average overall mshr miss latency
system.cpu.dcache.demand_avg_mshr_miss_latency::total 36246.053255                       # average overall mshr miss latency
system.cpu.dcache.overall_avg_mshr_miss_latency::.cpu.data 36502.008570                       # average overall mshr miss latency
system.cpu.dcache.overall_avg_mshr_miss_latency::total 36502.008570                       # average overall mshr miss latency
system.cpu.dcache.replacements                 708200                       # number of replacements
system.cpu.dcache.ReadReq_hits::.cpu.data     40701807                       # number of ReadReq hits
system.cpu.dcache.ReadReq_hits::total        40701807                       # number of ReadReq hits
system.cpu.dcache.ReadReq_misses::.cpu.data       418149                       # number of ReadReq misses
system.cpu.dcache.ReadReq_misses::total        418149                       # number of ReadReq misses
system.cpu.dcache.ReadReq_miss_latency::.cpu.data  11279018000                       # number of ReadReq miss cycles
system.cpu.dcache.ReadReq_miss_latency::total  11279018000                       # number of ReadReq miss cycles
system.cpu.dcache.ReadReq_accesses::.cpu.data     41119956                       # number of ReadReq accesses(hits+misses)
system.cpu.dcache.ReadReq_accesses::total     41119956                       # number of ReadReq accesses(hits+misses)
system.cpu.dcache.ReadReq_miss_rate::.cpu.data     0.010169                       # miss rate for ReadReq accesses
system.cpu.dcache.ReadReq_miss_rate::total     0.010169                       # miss rate for ReadReq accesses
system.cpu.dcache.ReadReq_avg_miss_latency::.cpu.data 26973.681630                       # average ReadReq miss latency
system.cpu.dcache.ReadReq_avg_miss_latency::total 26973.681630                       # average ReadReq miss latency
system.cpu.dcache.ReadReq_mshr_hits::.cpu.data         2605                       # number of ReadReq MSHR hits
system.cpu.dcache.ReadReq_mshr_hits::total         2605                       # number of ReadReq MSHR hits
system.cpu.dcache.ReadReq_mshr_misses::.cpu.data       415544                       # number of ReadReq MSHR misses
system.cpu.dcache.ReadReq_mshr_misses::total       415544                       # number of ReadReq MSHR misses
system.cpu.dcache.ReadReq_mshr_miss_latency::.cpu.data  10732533000                       # number of ReadReq MSHR miss cycles
system.cpu.dcache.ReadReq_mshr_miss_latency::total  10732533000                       # number of ReadReq MSHR miss cycles
system.cpu.dcache.ReadReq_mshr_miss_rate::.cpu.data     0.010106                       # mshr miss rate for ReadReq accesses
system.cpu.dcache.ReadReq_mshr_miss_rate::total     0.010106                       # mshr miss rate for ReadReq accesses
system.cpu.dcache.ReadReq_avg_mshr_miss_latency::.cpu.data 25827.669272                       # average ReadReq mshr miss latency
system.cpu.dcache.ReadReq_avg_mshr_miss_latency::total 25827.669272                       # average ReadReq mshr miss latency
system.cpu.dcache.WriteReq_hits::.cpu.data     10627738                       # number of WriteReq hits
system.cpu.dcache.WriteReq_hits::total       10627738                       # number of WriteReq hits
system.cpu.dcache.WriteReq_misses::.cpu.data       322341                       # number of WriteReq misses
system.cpu.dcache.WriteReq_misses::total       322341                       # number of WriteReq misses
system.cpu.dcache.WriteReq_miss_latency::.cpu.data  17413544500                       # number of WriteReq miss cycles
system.cpu.dcache.WriteReq_miss_latency::total  17413544500                       # number of WriteReq miss cycles
system.cpu.dcache.WriteReq_accesses::.cpu.data     10950079                       # number of WriteReq accesses(hits+misses)
system.cpu.dcache.WriteReq_accesses::total     10950079                       # number of WriteReq accesses(hits+misses)
system.cpu.dcache.WriteReq_miss_rate::.cpu.data     0.029437                       # miss rate for WriteReq accesses
system.cpu.dcache.WriteReq_miss_rate::total     0.029437                       # miss rate for WriteReq accesses
system.cpu.dcache.WriteReq_avg_miss_latency::.cpu.data 54022.120984                       # average WriteReq miss latency
system.cpu.dcache.WriteReq_avg_miss_latency::total 54022.120984                       # average WriteReq miss latency
system.cpu.dcache.WriteReq_mshr_hits::.cpu.data        33127                       # number of WriteReq MSHR hits
system.cpu.dcache.WriteReq_mshr_hits::total        33127                       # number of WriteReq MSHR hits
system.cpu.dcache.WriteReq_mshr_misses::.cpu.data       289214                       # number of WriteReq MSHR misses
system.cpu.dcache.WriteReq_mshr_misses::total       289214                       # number of WriteReq MSHR misses
system.cpu.dcache.WriteReq_mshr_miss_latency::.cpu.data  14812163000                       # number of WriteReq MSHR miss cycles
system.cpu.dcache.WriteReq_mshr_miss_latency::total  14812163000                       # number of WriteReq MSHR miss cycles
system.cpu.dcache.WriteReq_mshr_miss_rate::.cpu.data     0.026412                       # mshr miss rate for WriteReq accesses
system.cpu.dcache.WriteReq_mshr_miss_rate::total     0.026412                       # mshr miss rate for WriteReq accesses
system.cpu.dcache.WriteReq_avg_mshr_miss_latency::.cpu.data 51215.235085                       # average WriteReq mshr miss latency
system.cpu.dcache.WriteReq_avg_mshr_miss_latency::total 51215.235085                       # average WriteReq mshr miss latency
system.cpu.dcache.SoftPFReq_hits::.cpu.data          564                       # number of SoftPFReq hits
system.cpu.dcache.SoftPFReq_hits::total           564                       # number of SoftPFReq hits
system.cpu.dcache.SoftPFReq_misses::.cpu.data         7854                       # number of SoftPFReq misses
system.cpu.dcache.SoftPFReq_misses::total         7854                       # number of SoftPFReq misses
system.cpu.dcache.SoftPFReq_accesses::.cpu.data         8418                       # number of SoftPFReq accesses(hits+misses)
system.cpu.dcache.SoftPFReq_accesses::total         8418                       # number of SoftPFReq accesses(hits+misses)
system.cpu.dcache.SoftPFReq_miss_rate::.cpu.data     0.933001                       # miss rate for SoftPFReq accesses
system.cpu.dcache.SoftPFReq_miss_rate::total     0.933001                       # miss rate for SoftPFReq accesses
system.cpu.dcache.SoftPFReq_mshr_misses::.cpu.data         3955                       # number of SoftPFReq MSHR misses
system.cpu.dcache.SoftPFReq_mshr_misses::total         3955                       # number of SoftPFReq MSHR misses
system.cpu.dcache.SoftPFReq_mshr_miss_latency::.cpu.data    324752000                       # number of SoftPFReq MSHR miss cycles
system.cpu.dcache.SoftPFReq_mshr_miss_latency::total    324752000                       # number of SoftPFReq MSHR miss cycles
system.cpu.dcache.SoftPFReq_mshr_miss_rate::.cpu.data     0.469827                       # mshr miss rate for SoftPFReq accesses
system.cpu.dcache.SoftPFReq_mshr_miss_rate::total     0.469827                       # mshr miss rate for SoftPFReq accesses
system.cpu.dcache.SoftPFReq_avg_mshr_miss_latency::.cpu.data 82111.757269                       # average SoftPFReq mshr miss latency
system.cpu.dcache.SoftPFReq_avg_mshr_miss_latency::total 82111.757269                       # average SoftPFReq mshr miss latency
system.cpu.dcache.LoadLockedReq_hits::.cpu.data           38                       # number of LoadLockedReq hits
system.cpu.dcache.LoadLockedReq_hits::total           38                       # number of LoadLockedReq hits
system.cpu.dcache.LoadLockedReq_accesses::.cpu.data           38                       # number of LoadLockedReq accesses(hits+misses)
system.cpu.dcache.LoadLockedReq_accesses::total           38                       # number of LoadLockedReq accesses(hits+misses)
system.cpu.dcache.StoreCondReq_hits::.cpu.data           38                       # number of StoreCondReq hits
system.cpu.dcache.StoreCondReq_hits::total           38                       # number of StoreCondReq hits
system.cpu.dcache.StoreCondReq_accesses::.cpu.data           38                       # number of StoreCondReq accesses(hits+misses)
system.cpu.dcache.StoreCondReq_accesses::total           38                       # number of StoreCondReq accesses(hits+misses)
system.cpu.dcache.tags.pwrStateResidencyTicks::UNDEFINED  87553936500                       # Cumulative time (in ticks) in various power states
system.cpu.dcache.tags.tagsinuse           504.656918                       # Cycle average of tags in use
system.cpu.dcache.tags.total_refs            52038897                       # Total number of references to valid blocks.
system.cpu.dcache.tags.sampled_refs            708712                       # Sample count of references to valid blocks.
system.cpu.dcache.tags.avg_refs             73.427425                       # Average number of references to valid blocks.
system.cpu.dcache.tags.warmup_cycle            186500                       # Cycle when the warmup percentage was hit.
system.cpu.dcache.tags.occ_blocks::.cpu.data   504.656918                       # Average occupied blocks per requestor
system.cpu.dcache.tags.occ_percent::.cpu.data     0.985658                       # Average percentage of cache occupancy
system.cpu.dcache.tags.occ_percent::total     0.985658                       # Average percentage of cache occupancy
system.cpu.dcache.tags.occ_task_id_blocks::1024          512                       # Occupied blocks per task id
system.cpu.dcache.tags.age_task_id_blocks_1024::0          157                       # Occupied blocks per task id
system.cpu.dcache.tags.age_task_id_blocks_1024::1          219                       # Occupied blocks per task id
system.cpu.dcache.tags.age_task_id_blocks_1024::2          134                       # Occupied blocks per task id
system.cpu.dcache.tags.age_task_id_blocks_1024::3            2                       # Occupied blocks per task id
system.cpu.dcache.tags.occ_task_id_percent::1024            1                       # Percentage of cache occupancy per task id
system.cpu.dcache.tags.tag_accesses         104865770                       # Number of tag accesses
system.cpu.dcache.tags.data_accesses        104865770                       # Number of data accesses
system.cpu.itb.walker.pwrStateResidencyTicks::UNDEFINED  87553936500                       # Cumulative time (in ticks) in various power states
system.cpu.itb.stage2_mmu.stage2_tlb.walker.pwrStateResidencyTicks::UNDEFINED  87553936500                       # Cumulative time (in ticks) in various power states

---------- End Simulation Statistics   ----------
