
---------- Begin Simulation Statistics ----------
final_tick                                87405406500                       # Number of ticks from beginning of simulation (restored from checkpoints and never reset)
host_inst_rate                                 368582                       # Simulator instruction rate (inst/s)
host_mem_usage                                 683372                       # Number of bytes of host memory used
host_op_rate                                   369305                       # Simulator op (including micro ops) rate (op/s)
host_seconds                                   271.31                       # Real time elapsed on the host
host_tick_rate                              322160274                       # Simulator tick rate (ticks/s)
sim_freq                                 1000000000000                       # Frequency of simulated ticks
sim_insts                                   100000001                       # Number of instructions simulated
sim_ops                                     100196363                       # Number of ops (including micro ops) simulated
sim_seconds                                  0.087405                       # Number of seconds simulated
sim_ticks                                 87405406500                       # Number of ticks simulated
system.cpu.branchPred.BTBCorrect                    0                       # Number of correct BTB predictions (this stat may not work properly.
system.cpu.branchPred.BTBHitPct             99.616910                       # BTB Hit Percentage
system.cpu.branchPred.BTBHits                 2095625                       # Number of BTB hits
system.cpu.branchPred.BTBLookups              2103684                       # Number of BTB lookups
system.cpu.branchPred.RASInCorrect                  5                       # Number of incorrect RAS predictions.
system.cpu.branchPred.condIncorrect             81389                       # Number of conditional branches incorrect
system.cpu.branchPred.condPredicted           3728115                       # Number of conditional branches predicted
system.cpu.branchPred.indirectHits                292                       # Number of indirect target hits.
system.cpu.branchPred.indirectLookups             999                       # Number of indirect predictor lookups.
system.cpu.branchPred.indirectMisses              707                       # Number of indirect misses.
system.cpu.branchPred.lookups                 4478233                       # Number of BP lookups
system.cpu.branchPred.usedRAS                   65358                       # Number of times the RAS was used to get a target.
system.cpu.branchPredindirectMispredicted          168                       # Number of mispredicted indirect branches.
system.cpu.committedInsts                   100000001                       # Number of instructions committed
system.cpu.committedOps                     100196363                       # Number of ops (including micro ops) committed
system.cpu.cpi                               1.748108                       # CPI: cycles per instruction
system.cpu.discardedOps                        190822                       # Number of ops (including micro ops) which were discarded before commit
system.cpu.dtb.accesses                             0                       # DTB accesses
system.cpu.dtb.align_faults                         0                       # Number of TLB faults due to alignment restrictions
system.cpu.dtb.domain_faults                        0                       # Number of TLB faults due to domain restrictions
system.cpu.dtb.flush_entries                        0                       # Number of entries that have been flushed from TLB
system.cpu.dtb.flush_tlb                            0                       # Number of times complete TLB was flushed
system.cpu.dtb.flush_tlb_asid                       0                       # Number of times TLB was flushed by ASID
system.cpu.dtb.flush_tlb_mva                        0                       # Number of times TLB was flushed by MVA
system.cpu.dtb.flush_tlb_mva_asid                   0                       # Number of times TLB was flushed by MVA & ASID
system.cpu.dtb.hits                                 0                       # DTB hits
system.cpu.dtb.inst_accesses                        0                       # ITB inst accesses
system.cpu.dtb.inst_hits                            0                       # ITB inst hits
system.cpu.dtb.inst_misses                          0                       # ITB inst misses
system.cpu.dtb.misses                               0                       # DTB misses
system.cpu.dtb.perms_faults                         0                       # Number of TLB faults due to permissions restrictions
system.cpu.dtb.prefetch_faults                      0                       # Number of TLB faults due to prefetch
system.cpu.dtb.read_accesses                        0                       # DTB read accesses
system.cpu.dtb.read_hits                            0                       # DTB read hits
system.cpu.dtb.read_misses                          0                       # DTB read misses
system.cpu.dtb.stage2_mmu.stage2_tlb.accesses            0                       # DTB accesses
system.cpu.dtb.stage2_mmu.stage2_tlb.align_faults            0                       # Number of TLB faults due to alignment restrictions
system.cpu.dtb.stage2_mmu.stage2_tlb.domain_faults            0                       # Number of TLB faults due to domain restrictions
system.cpu.dtb.stage2_mmu.stage2_tlb.flush_entries            0                       # Number of entries that have been flushed from TLB
system.cpu.dtb.stage2_mmu.stage2_tlb.flush_tlb            0                       # Number of times complete TLB was flushed
system.cpu.dtb.stage2_mmu.stage2_tlb.flush_tlb_asid            0                       # Number of times TLB was flushed by ASID
system.cpu.dtb.stage2_mmu.stage2_tlb.flush_tlb_mva            0                       # Number of times TLB was flushed by MVA
system.cpu.dtb.stage2_mmu.stage2_tlb.flush_tlb_mva_asid            0                       # Number of times TLB was flushed by MVA & ASID
system.cpu.dtb.stage2_mmu.stage2_tlb.hits            0                       # DTB hits
system.cpu.dtb.stage2_mmu.stage2_tlb.inst_accesses            0                       # ITB inst accesses
system.cpu.dtb.stage2_mmu.stage2_tlb.inst_hits            0                       # ITB inst hits
system.cpu.dtb.stage2_mmu.stage2_tlb.inst_misses            0                       # ITB inst misses
system.cpu.dtb.stage2_mmu.stage2_tlb.misses            0                       # DTB misses
system.cpu.dtb.stage2_mmu.stage2_tlb.perms_faults            0                       # Number of TLB faults due to permissions restrictions
system.cpu.dtb.stage2_mmu.stage2_tlb.prefetch_faults            0                       # Number of TLB faults due to prefetch
system.cpu.dtb.stage2_mmu.stage2_tlb.read_accesses            0                       # DTB read accesses
system.cpu.dtb.stage2_mmu.stage2_tlb.read_hits            0                       # DTB read hits
system.cpu.dtb.stage2_mmu.stage2_tlb.read_misses            0                       # DTB read misses
system.cpu.dtb.stage2_mmu.stage2_tlb.walker.walkRequestOrigin_Requested::Data            0                       # Table walker requests started/completed, data/inst
system.cpu.dtb.stage2_mmu.stage2_tlb.walker.walkRequestOrigin_Requested::Inst            0                       # Table walker requests started/completed, data/inst
system.cpu.dtb.stage2_mmu.stage2_tlb.walker.walkRequestOrigin_Requested::total            0                       # Table walker requests started/completed, data/inst
system.cpu.dtb.stage2_mmu.stage2_tlb.walker.walkRequestOrigin_Completed::Data            0                       # Table walker requests started/completed, data/inst
system.cpu.dtb.stage2_mmu.stage2_tlb.walker.walkRequestOrigin_Completed::Inst            0                       # Table walker requests started/completed, data/inst
system.cpu.dtb.stage2_mmu.stage2_tlb.walker.walkRequestOrigin_Completed::total            0                       # Table walker requests started/completed, data/inst
system.cpu.dtb.stage2_mmu.stage2_tlb.walker.walkRequestOrigin::total            0                       # Table walker requests started/completed, data/inst
system.cpu.dtb.stage2_mmu.stage2_tlb.walker.walks            0                       # Table walker walks requested
system.cpu.dtb.stage2_mmu.stage2_tlb.write_accesses            0                       # DTB write accesses
system.cpu.dtb.stage2_mmu.stage2_tlb.write_hits            0                       # DTB write hits
system.cpu.dtb.stage2_mmu.stage2_tlb.write_misses            0                       # DTB write misses
system.cpu.dtb.walker.walkRequestOrigin_Requested::Data            0                       # Table walker requests started/completed, data/inst
system.cpu.dtb.walker.walkRequestOrigin_Requested::Inst            0                       # Table walker requests started/completed, data/inst
system.cpu.dtb.walker.walkRequestOrigin_Requested::total            0                       # Table walker requests started/completed, data/inst
system.cpu.dtb.walker.walkRequestOrigin_Completed::Data            0                       # Table walker requests started/completed, data/inst
system.cpu.dtb.walker.walkRequestOrigin_Completed::Inst            0                       # Table walker requests started/completed, data/inst
system.cpu.dtb.walker.walkRequestOrigin_Completed::total            0                       # Table walker requests started/completed, data/inst
system.cpu.dtb.walker.walkRequestOrigin::total            0                       # Table walker requests started/completed, data/inst
system.cpu.dtb.walker.walks                         0                       # Table walker walks requested
system.cpu.dtb.write_accesses                       0                       # DTB write accesses
system.cpu.dtb.write_hits                           0                       # DTB write hits
system.cpu.dtb.write_misses                         0                       # DTB write misses
system.cpu.fetch2.amo_instructions                  0                       # Number of memory atomic instructions successfully decoded
system.cpu.fetch2.fp_instructions                   0                       # Number of floating point instructions successfully decoded
system.cpu.fetch2.int_instructions           42610540                       # Number of integer instructions successfully decoded
system.cpu.fetch2.load_instructions          43403345                       # Number of memory load instructions successfully decoded
system.cpu.fetch2.store_instructions         11001636                       # Number of memory store instructions successfully decoded
system.cpu.fetch2.vec_instructions                  0                       # Number of SIMD instructions successfully decoded
system.cpu.idleCycles                        42076216                       # Total number of cycles that the object has spent stopped
system.cpu.ipc                               0.572047                       # IPC: instructions per cycle
system.cpu.itb.accesses                             0                       # DTB accesses
system.cpu.itb.align_faults                         0                       # Number of TLB faults due to alignment restrictions
system.cpu.itb.domain_faults                        0                       # Number of TLB faults due to domain restrictions
system.cpu.itb.flush_entries                        0                       # Number of entries that have been flushed from TLB
system.cpu.itb.flush_tlb                            0                       # Number of times complete TLB was flushed
system.cpu.itb.flush_tlb_asid                       0                       # Number of times TLB was flushed by ASID
system.cpu.itb.flush_tlb_mva                        0                       # Number of times TLB was flushed by MVA
system.cpu.itb.flush_tlb_mva_asid                   0                       # Number of times TLB was flushed by MVA & ASID
system.cpu.itb.hits                                 0                       # DTB hits
system.cpu.itb.inst_accesses                        0                       # ITB inst accesses
system.cpu.itb.inst_hits                            0                       # ITB inst hits
system.cpu.itb.inst_misses                          0                       # ITB inst misses
system.cpu.itb.misses                               0                       # DTB misses
system.cpu.itb.perms_faults                         0                       # Number of TLB faults due to permissions restrictions
system.cpu.itb.prefetch_faults                      0                       # Number of TLB faults due to prefetch
system.cpu.itb.read_accesses                        0                       # DTB read accesses
system.cpu.itb.read_hits                            0                       # DTB read hits
system.cpu.itb.read_misses                          0                       # DTB read misses
system.cpu.itb.stage2_mmu.stage2_tlb.accesses            0                       # DTB accesses
system.cpu.itb.stage2_mmu.stage2_tlb.align_faults            0                       # Number of TLB faults due to alignment restrictions
system.cpu.itb.stage2_mmu.stage2_tlb.domain_faults            0                       # Number of TLB faults due to domain restrictions
system.cpu.itb.stage2_mmu.stage2_tlb.flush_entries            0                       # Number of entries that have been flushed from TLB
system.cpu.itb.stage2_mmu.stage2_tlb.flush_tlb            0                       # Number of times complete TLB was flushed
system.cpu.itb.stage2_mmu.stage2_tlb.flush_tlb_asid            0                       # Number of times TLB was flushed by ASID
system.cpu.itb.stage2_mmu.stage2_tlb.flush_tlb_mva            0                       # Number of times TLB was flushed by MVA
system.cpu.itb.stage2_mmu.stage2_tlb.flush_tlb_mva_asid            0                       # Number of times TLB was flushed by MVA & ASID
system.cpu.itb.stage2_mmu.stage2_tlb.hits            0                       # DTB hits
system.cpu.itb.stage2_mmu.stage2_tlb.inst_accesses            0                       # ITB inst accesses
system.cpu.itb.stage2_mmu.stage2_tlb.inst_hits            0                       # ITB inst hits
system.cpu.itb.stage2_mmu.stage2_tlb.inst_misses            0                       # ITB inst misses
system.cpu.itb.stage2_mmu.stage2_tlb.misses            0                       # DTB misses
system.cpu.itb.stage2_mmu.stage2_tlb.perms_faults            0                       # Number of TLB faults due to permissions restrictions
system.cpu.itb.stage2_mmu.stage2_tlb.prefetch_faults            0                       # Number of TLB faults due to prefetch
system.cpu.itb.stage2_mmu.stage2_tlb.read_accesses            0                       # DTB read accesses
system.cpu.itb.stage2_mmu.stage2_tlb.read_hits            0                       # DTB read hits
system.cpu.itb.stage2_mmu.stage2_tlb.read_misses            0                       # DTB read misses
system.cpu.itb.stage2_mmu.stage2_tlb.walker.walkRequestOrigin_Requested::Data            0                       # Table walker requests started/completed, data/inst
system.cpu.itb.stage2_mmu.stage2_tlb.walker.walkRequestOrigin_Requested::Inst            0                       # Table walker requests started/completed, data/inst
system.cpu.itb.stage2_mmu.stage2_tlb.walker.walkRequestOrigin_Requested::total            0                       # Table walker requests started/completed, data/inst
system.cpu.itb.stage2_mmu.stage2_tlb.walker.walkRequestOrigin_Completed::Data            0                       # Table walker requests started/completed, data/inst
system.cpu.itb.stage2_mmu.stage2_tlb.walker.walkRequestOrigin_Completed::Inst            0                       # Table walker requests started/completed, data/inst
system.cpu.itb.stage2_mmu.stage2_tlb.walker.walkRequestOrigin_Completed::total            0                       # Table walker requests started/completed, data/inst
system.cpu.itb.stage2_mmu.stage2_tlb.walker.walkRequestOrigin::total            0                       # Table walker requests started/completed, data/inst
system.cpu.itb.stage2_mmu.stage2_tlb.walker.walks            0                       # Table walker walks requested
system.cpu.itb.stage2_mmu.stage2_tlb.write_accesses            0                       # DTB write accesses
system.cpu.itb.stage2_mmu.stage2_tlb.write_hits            0                       # DTB write hits
system.cpu.itb.stage2_mmu.stage2_tlb.write_misses            0                       # DTB write misses
system.cpu.itb.walker.walkRequestOrigin_Requested::Data            0                       # Table walker requests started/completed, data/inst
system.cpu.itb.walker.walkRequestOrigin_Requested::Inst            0                       # Table walker requests started/completed, data/inst
system.cpu.itb.walker.walkRequestOrigin_Requested::total            0                       # Table walker requests started/completed, data/inst
system.cpu.itb.walker.walkRequestOrigin_Completed::Data            0                       # Table walker requests started/completed, data/inst
system.cpu.itb.walker.walkRequestOrigin_Completed::Inst            0                       # Table walker requests started/completed, data/inst
system.cpu.itb.walker.walkRequestOrigin_Completed::total            0                       # Table walker requests started/completed, data/inst
system.cpu.itb.walker.walkRequestOrigin::total            0                       # Table walker requests started/completed, data/inst
system.cpu.itb.walker.walks                         0                       # Table walker walks requested
system.cpu.itb.write_accesses                       0                       # DTB write accesses
system.cpu.itb.write_hits                           0                       # DTB write hits
system.cpu.itb.write_misses                         0                       # DTB write misses
system.cpu.numCycles                        174810813                       # number of cpu cycles simulated
system.cpu.numFetchSuspends                         0                       # Number of times Execute suspended instruction fetching
system.cpu.numWorkItemsCompleted                    0                       # number of work items this cpu completed
system.cpu.numWorkItemsStarted                      0                       # number of work items this cpu started
system.cpu.op_class_0::No_OpClass                   0      0.00%      0.00% # Class of committed instruction
system.cpu.op_class_0::IntAlu                46531400     46.44%     46.44% # Class of committed instruction
system.cpu.op_class_0::IntMult                  20720      0.02%     46.46% # Class of committed instruction
system.cpu.op_class_0::IntDiv                       0      0.00%     46.46% # Class of committed instruction
system.cpu.op_class_0::FloatAdd                     0      0.00%     46.46% # Class of committed instruction
system.cpu.op_class_0::FloatCmp                     0      0.00%     46.46% # Class of committed instruction
system.cpu.op_class_0::FloatCvt                     0      0.00%     46.46% # Class of committed instruction
system.cpu.op_class_0::FloatMult                    0      0.00%     46.46% # Class of committed instruction
system.cpu.op_class_0::FloatMultAcc                 0      0.00%     46.46% # Class of committed instruction
system.cpu.op_class_0::FloatDiv                     0      0.00%     46.46% # Class of committed instruction
system.cpu.op_class_0::FloatMisc                    0      0.00%     46.46% # Class of committed instruction
system.cpu.op_class_0::FloatSqrt                    0      0.00%     46.46% # Class of committed instruction
system.cpu.op_class_0::SimdAdd                      0      0.00%     46.46% # Class of committed instruction
system.cpu.op_class_0::SimdAddAcc                   0      0.00%     46.46% # Class of committed instruction
system.cpu.op_class_0::SimdAlu                      0      0.00%     46.46% # Class of committed instruction
system.cpu.op_class_0::SimdCmp                      0      0.00%     46.46% # Class of committed instruction
system.cpu.op_class_0::SimdCvt                      0      0.00%     46.46% # Class of committed instruction
system.cpu.op_class_0::SimdMisc                     0      0.00%     46.46% # Class of committed instruction
system.cpu.op_class_0::SimdMult                     0      0.00%     46.46% # Class of committed instruction
system.cpu.op_class_0::SimdMultAcc                  0      0.00%     46.46% # Class of committed instruction
system.cpu.op_class_0::SimdShift                    0      0.00%     46.46% # Class of committed instruction
system.cpu.op_class_0::SimdShiftAcc                 0      0.00%     46.46% # Class of committed instruction
system.cpu.op_class_0::SimdDiv                      0      0.00%     46.46% # Class of committed instruction
system.cpu.op_class_0::SimdSqrt                     0      0.00%     46.46% # Class of committed instruction
system.cpu.op_class_0::SimdFloatAdd                 0      0.00%     46.46% # Class of committed instruction
system.cpu.op_class_0::SimdFloatAlu                 0      0.00%     46.46% # Class of committed instruction
system.cpu.op_class_0::SimdFloatCmp                 0      0.00%     46.46% # Class of committed instruction
system.cpu.op_class_0::SimdFloatCvt                 0      0.00%     46.46% # Class of committed instruction
system.cpu.op_class_0::SimdFloatDiv                 0      0.00%     46.46% # Class of committed instruction
system.cpu.op_class_0::SimdFloatMisc               18      0.00%     46.46% # Class of committed instruction
system.cpu.op_class_0::SimdFloatMult                0      0.00%     46.46% # Class of committed instruction
system.cpu.op_class_0::SimdFloatMultAcc             0      0.00%     46.46% # Class of committed instruction
system.cpu.op_class_0::SimdFloatSqrt                0      0.00%     46.46% # Class of committed instruction
system.cpu.op_class_0::SimdReduceAdd                0      0.00%     46.46% # Class of committed instruction
system.cpu.op_class_0::SimdReduceAlu                0      0.00%     46.46% # Class of committed instruction
system.cpu.op_class_0::SimdReduceCmp                0      0.00%     46.46% # Class of committed instruction
system.cpu.op_class_0::SimdFloatReduceAdd            0      0.00%     46.46% # Class of committed instruction
system.cpu.op_class_0::SimdFloatReduceCmp            0      0.00%     46.46% # Class of committed instruction
system.cpu.op_class_0::SimdAes                      0      0.00%     46.46% # Class of committed instruction
system.cpu.op_class_0::SimdAesMix                   0      0.00%     46.46% # Class of committed instruction
system.cpu.op_class_0::SimdSha1Hash                 0      0.00%     46.46% # Class of committed instruction
system.cpu.op_class_0::SimdSha1Hash2                0      0.00%     46.46% # Class of committed instruction
system.cpu.op_class_0::SimdSha256Hash               0      0.00%     46.46% # Class of committed instruction
system.cpu.op_class_0::SimdSha256Hash2              0      0.00%     46.46% # Class of committed instruction
system.cpu.op_class_0::SimdShaSigma2                0      0.00%     46.46% # Class of committed instruction
system.cpu.op_class_0::SimdShaSigma3                0      0.00%     46.46% # Class of committed instruction
system.cpu.op_class_0::SimdPredAlu                  0      0.00%     46.46% # Class of committed instruction
system.cpu.op_class_0::MemRead               42693601     42.61%     89.07% # Class of committed instruction
system.cpu.op_class_0::MemWrite              10950624     10.93%    100.00% # Class of committed instruction
system.cpu.op_class_0::FloatMemRead                 0      0.00%    100.00% # Class of committed instruction
system.cpu.op_class_0::FloatMemWrite                0      0.00%    100.00% # Class of committed instruction
system.cpu.op_class_0::IprAccess                    0      0.00%    100.00% # Class of committed instruction
system.cpu.op_class_0::InstPrefetch                 0      0.00%    100.00% # Class of committed instruction
system.cpu.op_class_0::total                100196363                       # Class of committed instruction
system.cpu.tickCycles                       132734597                       # Number of cycles that the object actually ticked
system.cpu.workload.numSyscalls                    84                       # Number of system calls
system.membus.snoop_filter.hit_multi_requests            0                       # Number of requests hitting in the snoop filter with multiple (>1) holders of the requested data.
system.membus.snoop_filter.hit_multi_snoops            0                       # Number of snoops hitting in the snoop filter with multiple (>1) holders of the requested data.
system.membus.snoop_filter.hit_single_requests       194996                       # Number of requests hitting in the snoop filter with a single holder of the requested data.
system.membus.snoop_filter.hit_single_snoops            0                       # Number of snoops hitting in the snoop filter with a single holder of the requested data.
system.membus.snoop_filter.tot_requests        394312                       # Total number of requests made to the snoop filter.
system.membus.snoop_filter.tot_snoops               0                       # Total number of snoops made to the snoop filter.
system.tol2bus.snoop_filter.hit_multi_requests          168                       # Number of requests hitting in the snoop filter with multiple (>1) holders of the requested data.
system.tol2bus.snoop_filter.hit_multi_snoops            7                       # Number of snoops hitting in the snoop filter with multiple (>1) holders of the requested data.
system.tol2bus.snoop_filter.hit_single_requests       707906                       # Number of requests hitting in the snoop filter with a single holder of the requested data.
system.tol2bus.snoop_filter.hit_single_snoops          426                       # Number of snoops hitting in the snoop filter with a single holder of the requested data.
system.tol2bus.snoop_filter.tot_requests      1416563                       # Total number of requests made to the snoop filter.
system.tol2bus.snoop_filter.tot_snoops            433                       # Total number of snoops made to the snoop filter.
system.membus.pwrStateResidencyTicks::UNDEFINED  87405406500                       # Cumulative time (in ticks) in various power states
system.membus.trans_dist::ReadResp              73897                       # Transaction distribution
system.membus.trans_dist::WritebackDirty       146884                       # Transaction distribution
system.membus.trans_dist::CleanEvict            48098                       # Transaction distribution
system.membus.trans_dist::ReadExReq            125433                       # Transaction distribution
system.membus.trans_dist::ReadExResp           125432                       # Transaction distribution
system.membus.trans_dist::ReadSharedReq         73897                       # Transaction distribution
system.membus.pkt_count_system.l2.mem_side::system.mem_ctrls.port       593641                       # Packet count per connected master and slave (bytes)
system.membus.pkt_count::total                 593641                       # Packet count per connected master and slave (bytes)
system.membus.pkt_size_system.l2.mem_side::system.mem_ctrls.port     44315264                       # Cumulative packet size per connected master and slave (bytes)
system.membus.pkt_size::total                44315264                       # Cumulative packet size per connected master and slave (bytes)
system.membus.snoops                                0                       # Total snoops (count)
system.membus.snoopTraffic                          0                       # Total snoop traffic (bytes)
system.membus.snoop_fanout::samples            199330                       # Request fanout histogram
system.membus.snoop_fanout::mean                    0                       # Request fanout histogram
system.membus.snoop_fanout::stdev                   0                       # Request fanout histogram
system.membus.snoop_fanout::underflows              0      0.00%      0.00% # Request fanout histogram
system.membus.snoop_fanout::0                  199330    100.00%    100.00% # Request fanout histogram
system.membus.snoop_fanout::1                       0      0.00%    100.00% # Request fanout histogram
system.membus.snoop_fanout::overflows               0      0.00%    100.00% # Request fanout histogram
system.membus.snoop_fanout::min_value               0                       # Request fanout histogram
system.membus.snoop_fanout::max_value               0                       # Request fanout histogram
system.membus.snoop_fanout::total              199330                       # Request fanout histogram
system.membus.respLayer1.occupancy         1879419500                       # Layer occupancy (ticks)
system.membus.respLayer1.utilization              2.2                       # Layer utilization (%)
system.membus.reqLayer0.occupancy          1615159500                       # Layer occupancy (ticks)
system.membus.reqLayer0.utilization               1.8                       # Layer utilization (%)
system.tol2bus.pwrStateResidencyTicks::UNDEFINED  87405406500                       # Cumulative time (in ticks) in various power states
system.tol2bus.trans_dist::ReadResp            419705                       # Transaction distribution
system.tol2bus.trans_dist::WritebackDirty       790497                       # Transaction distribution
system.tol2bus.trans_dist::WritebackClean          302                       # Transaction distribution
system.tol2bus.trans_dist::CleanEvict          112511                       # Transaction distribution
system.tol2bus.trans_dist::ReadExReq           288952                       # Transaction distribution
system.tol2bus.trans_dist::ReadExResp          288951                       # Transaction distribution
system.tol2bus.trans_dist::ReadCleanReq           540                       # Transaction distribution
system.tol2bus.trans_dist::ReadSharedReq       419165                       # Transaction distribution
system.tol2bus.pkt_count_system.cpu.icache.mem_side::system.l2.cpu_side         1382                       # Packet count per connected master and slave (bytes)
system.tol2bus.pkt_count_system.cpu.dcache.mem_side::system.l2.cpu_side      2123837                       # Packet count per connected master and slave (bytes)
system.tol2bus.pkt_count::total               2125219                       # Packet count per connected master and slave (bytes)
system.tol2bus.pkt_size_system.cpu.icache.mem_side::system.l2.cpu_side       107776                       # Cumulative packet size per connected master and slave (bytes)
system.tol2bus.pkt_size_system.cpu.dcache.mem_side::system.l2.cpu_side    173021312                       # Cumulative packet size per connected master and slave (bytes)
system.tol2bus.pkt_size::total              173129088                       # Cumulative packet size per connected master and slave (bytes)
system.tol2bus.snoops                          195404                       # Total snoops (count)
system.tol2bus.snoopTraffic                  18801152                       # Total snoop traffic (bytes)
system.tol2bus.snoop_fanout::samples           904061                       # Request fanout histogram
system.tol2bus.snoop_fanout::mean            0.000673                       # Request fanout histogram
system.tol2bus.snoop_fanout::stdev           0.026221                       # Request fanout histogram
system.tol2bus.snoop_fanout::underflows             0      0.00%      0.00% # Request fanout histogram
system.tol2bus.snoop_fanout::0                 903460     99.93%     99.93% # Request fanout histogram
system.tol2bus.snoop_fanout::1                    594      0.07%    100.00% # Request fanout histogram
system.tol2bus.snoop_fanout::2                      7      0.00%    100.00% # Request fanout histogram
system.tol2bus.snoop_fanout::overflows              0      0.00%    100.00% # Request fanout histogram
system.tol2bus.snoop_fanout::min_value              0                       # Request fanout histogram
system.tol2bus.snoop_fanout::max_value              2                       # Request fanout histogram
system.tol2bus.snoop_fanout::total             904061                       # Request fanout histogram
system.tol2bus.reqLayer0.occupancy         1996111500                       # Layer occupancy (ticks)
system.tol2bus.reqLayer0.utilization              2.3                       # Layer utilization (%)
system.tol2bus.respLayer1.occupancy        1770292495                       # Layer occupancy (ticks)
system.tol2bus.respLayer1.utilization             2.0                       # Layer utilization (%)
system.tol2bus.respLayer0.occupancy           1350000                       # Layer occupancy (ticks)
system.tol2bus.respLayer0.utilization             0.0                       # Layer utilization (%)
system.voltage_domain.voltage                       1                       # Voltage in Volts
system.clk_domain.clock                          1000                       # Clock period in ticks
system.l2.pwrStateResidencyTicks::UNDEFINED  87405406500                       # Cumulative time (in ticks) in various power states
system.l2.demand_hits::.cpu.inst                  114                       # number of demand (read+write) hits
system.l2.demand_hits::.cpu.data               509208                       # number of demand (read+write) hits
system.l2.demand_hits::total                   509322                       # number of demand (read+write) hits
system.l2.overall_hits::.cpu.inst                 114                       # number of overall hits
system.l2.overall_hits::.cpu.data              509208                       # number of overall hits
system.l2.overall_hits::total                  509322                       # number of overall hits
system.l2.demand_misses::.cpu.inst                426                       # number of demand (read+write) misses
system.l2.demand_misses::.cpu.data             198909                       # number of demand (read+write) misses
system.l2.demand_misses::total                 199335                       # number of demand (read+write) misses
system.l2.overall_misses::.cpu.inst               426                       # number of overall misses
system.l2.overall_misses::.cpu.data            198909                       # number of overall misses
system.l2.overall_misses::total                199335                       # number of overall misses
system.l2.demand_miss_latency::.cpu.inst     37152500                       # number of demand (read+write) miss cycles
system.l2.demand_miss_latency::.cpu.data  18959336500                       # number of demand (read+write) miss cycles
system.l2.demand_miss_latency::total      18996489000                       # number of demand (read+write) miss cycles
system.l2.overall_miss_latency::.cpu.inst     37152500                       # number of overall miss cycles
system.l2.overall_miss_latency::.cpu.data  18959336500                       # number of overall miss cycles
system.l2.overall_miss_latency::total     18996489000                       # number of overall miss cycles
system.l2.demand_accesses::.cpu.inst              540                       # number of demand (read+write) accesses
system.l2.demand_accesses::.cpu.data           708117                       # number of demand (read+write) accesses
system.l2.demand_accesses::total               708657                       # number of demand (read+write) accesses
system.l2.overall_accesses::.cpu.inst             540                       # number of overall (read+write) accesses
system.l2.overall_accesses::.cpu.data          708117                       # number of overall (read+write) accesses
system.l2.overall_accesses::total              708657                       # number of overall (read+write) accesses
system.l2.demand_miss_rate::.cpu.inst        0.788889                       # miss rate for demand accesses
system.l2.demand_miss_rate::.cpu.data        0.280898                       # miss rate for demand accesses
system.l2.demand_miss_rate::total            0.281286                       # miss rate for demand accesses
system.l2.overall_miss_rate::.cpu.inst       0.788889                       # miss rate for overall accesses
system.l2.overall_miss_rate::.cpu.data       0.280898                       # miss rate for overall accesses
system.l2.overall_miss_rate::total           0.281286                       # miss rate for overall accesses
system.l2.demand_avg_miss_latency::.cpu.inst 87212.441315                       # average overall miss latency
system.l2.demand_avg_miss_latency::.cpu.data 95316.634743                       # average overall miss latency
system.l2.demand_avg_miss_latency::total 95299.315223                       # average overall miss latency
system.l2.overall_avg_miss_latency::.cpu.inst 87212.441315                       # average overall miss latency
system.l2.overall_avg_miss_latency::.cpu.data 95316.634743                       # average overall miss latency
system.l2.overall_avg_miss_latency::total 95299.315223                       # average overall miss latency
system.l2.blocked_cycles::no_mshrs                  0                       # number of cycles access was blocked
system.l2.blocked_cycles::no_targets                0                       # number of cycles access was blocked
system.l2.blocked::no_mshrs                         0                       # number of cycles access was blocked
system.l2.blocked::no_targets                       0                       # number of cycles access was blocked
system.l2.avg_blocked_cycles::no_mshrs            nan                       # average number of cycles each access was blocked
system.l2.avg_blocked_cycles::no_targets          nan                       # average number of cycles each access was blocked
system.l2.writebacks::.writebacks              146884                       # number of writebacks
system.l2.writebacks::total                    146884                       # number of writebacks
system.l2.demand_mshr_hits::.cpu.data               5                       # number of demand (read+write) MSHR hits
system.l2.demand_mshr_hits::total                   5                       # number of demand (read+write) MSHR hits
system.l2.overall_mshr_hits::.cpu.data              5                       # number of overall MSHR hits
system.l2.overall_mshr_hits::total                  5                       # number of overall MSHR hits
system.l2.demand_mshr_misses::.cpu.inst           426                       # number of demand (read+write) MSHR misses
system.l2.demand_mshr_misses::.cpu.data        198904                       # number of demand (read+write) MSHR misses
system.l2.demand_mshr_misses::total            199330                       # number of demand (read+write) MSHR misses
system.l2.overall_mshr_misses::.cpu.inst          426                       # number of overall MSHR misses
system.l2.overall_mshr_misses::.cpu.data       198904                       # number of overall MSHR misses
system.l2.overall_mshr_misses::total           199330                       # number of overall MSHR misses
system.l2.demand_mshr_miss_latency::.cpu.inst     32892500                       # number of demand (read+write) MSHR miss cycles
system.l2.demand_mshr_miss_latency::.cpu.data  16969957000                       # number of demand (read+write) MSHR miss cycles
system.l2.demand_mshr_miss_latency::total  17002849500                       # number of demand (read+write) MSHR miss cycles
system.l2.overall_mshr_miss_latency::.cpu.inst     32892500                       # number of overall MSHR miss cycles
system.l2.overall_mshr_miss_latency::.cpu.data  16969957000                       # number of overall MSHR miss cycles
system.l2.overall_mshr_miss_latency::total  17002849500                       # number of overall MSHR miss cycles
system.l2.demand_mshr_miss_rate::.cpu.inst     0.788889                       # mshr miss rate for demand accesses
system.l2.demand_mshr_miss_rate::.cpu.data     0.280891                       # mshr miss rate for demand accesses
system.l2.demand_mshr_miss_rate::total       0.281279                       # mshr miss rate for demand accesses
system.l2.overall_mshr_miss_rate::.cpu.inst     0.788889                       # mshr miss rate for overall accesses
system.l2.overall_mshr_miss_rate::.cpu.data     0.280891                       # mshr miss rate for overall accesses
system.l2.overall_mshr_miss_rate::total      0.281279                       # mshr miss rate for overall accesses
system.l2.demand_avg_mshr_miss_latency::.cpu.inst 77212.441315                       # average overall mshr miss latency
system.l2.demand_avg_mshr_miss_latency::.cpu.data 85317.323935                       # average overall mshr miss latency
system.l2.demand_avg_mshr_miss_latency::total 85300.002508                       # average overall mshr miss latency
system.l2.overall_avg_mshr_miss_latency::.cpu.inst 77212.441315                       # average overall mshr miss latency
system.l2.overall_avg_mshr_miss_latency::.cpu.data 85317.323935                       # average overall mshr miss latency
system.l2.overall_avg_mshr_miss_latency::total 85300.002508                       # average overall mshr miss latency
system.l2.replacements                         195404                       # number of replacements
system.l2.WritebackDirty_hits::.writebacks       643613                       # number of WritebackDirty hits
system.l2.WritebackDirty_hits::total           643613                       # number of WritebackDirty hits
system.l2.WritebackDirty_accesses::.writebacks       643613                       # number of WritebackDirty accesses(hits+misses)
system.l2.WritebackDirty_accesses::total       643613                       # number of WritebackDirty accesses(hits+misses)
system.l2.WritebackClean_hits::.writebacks          289                       # number of WritebackClean hits
system.l2.WritebackClean_hits::total              289                       # number of WritebackClean hits
system.l2.WritebackClean_accesses::.writebacks          289                       # number of WritebackClean accesses(hits+misses)
system.l2.WritebackClean_accesses::total          289                       # number of WritebackClean accesses(hits+misses)
system.l2.CleanEvict_mshr_misses::.writebacks           11                       # number of CleanEvict MSHR misses
system.l2.CleanEvict_mshr_misses::total            11                       # number of CleanEvict MSHR misses
system.l2.CleanEvict_mshr_miss_rate::.writebacks          inf                       # mshr miss rate for CleanEvict accesses
system.l2.CleanEvict_mshr_miss_rate::total          inf                       # mshr miss rate for CleanEvict accesses
system.l2.ReadExReq_hits::.cpu.data            163519                       # number of ReadExReq hits
system.l2.ReadExReq_hits::total                163519                       # number of ReadExReq hits
system.l2.ReadExReq_misses::.cpu.data          125433                       # number of ReadExReq misses
system.l2.ReadExReq_misses::total              125433                       # number of ReadExReq misses
system.l2.ReadExReq_miss_latency::.cpu.data  12239940500                       # number of ReadExReq miss cycles
system.l2.ReadExReq_miss_latency::total   12239940500                       # number of ReadExReq miss cycles
system.l2.ReadExReq_accesses::.cpu.data        288952                       # number of ReadExReq accesses(hits+misses)
system.l2.ReadExReq_accesses::total            288952                       # number of ReadExReq accesses(hits+misses)
system.l2.ReadExReq_miss_rate::.cpu.data     0.434096                       # miss rate for ReadExReq accesses
system.l2.ReadExReq_miss_rate::total         0.434096                       # miss rate for ReadExReq accesses
system.l2.ReadExReq_avg_miss_latency::.cpu.data 97581.501678                       # average ReadExReq miss latency
system.l2.ReadExReq_avg_miss_latency::total 97581.501678                       # average ReadExReq miss latency
system.l2.ReadExReq_mshr_misses::.cpu.data       125433                       # number of ReadExReq MSHR misses
system.l2.ReadExReq_mshr_misses::total         125433                       # number of ReadExReq MSHR misses
system.l2.ReadExReq_mshr_miss_latency::.cpu.data  10985620500                       # number of ReadExReq MSHR miss cycles
system.l2.ReadExReq_mshr_miss_latency::total  10985620500                       # number of ReadExReq MSHR miss cycles
system.l2.ReadExReq_mshr_miss_rate::.cpu.data     0.434096                       # mshr miss rate for ReadExReq accesses
system.l2.ReadExReq_mshr_miss_rate::total     0.434096                       # mshr miss rate for ReadExReq accesses
system.l2.ReadExReq_avg_mshr_miss_latency::.cpu.data 87581.581402                       # average ReadExReq mshr miss latency
system.l2.ReadExReq_avg_mshr_miss_latency::total 87581.581402                       # average ReadExReq mshr miss latency
system.l2.ReadCleanReq_hits::.cpu.inst            114                       # number of ReadCleanReq hits
system.l2.ReadCleanReq_hits::total                114                       # number of ReadCleanReq hits
system.l2.ReadCleanReq_misses::.cpu.inst          426                       # number of ReadCleanReq misses
system.l2.ReadCleanReq_misses::total              426                       # number of ReadCleanReq misses
system.l2.ReadCleanReq_miss_latency::.cpu.inst     37152500                       # number of ReadCleanReq miss cycles
system.l2.ReadCleanReq_miss_latency::total     37152500                       # number of ReadCleanReq miss cycles
system.l2.ReadCleanReq_accesses::.cpu.inst          540                       # number of ReadCleanReq accesses(hits+misses)
system.l2.ReadCleanReq_accesses::total            540                       # number of ReadCleanReq accesses(hits+misses)
system.l2.ReadCleanReq_miss_rate::.cpu.inst     0.788889                       # miss rate for ReadCleanReq accesses
system.l2.ReadCleanReq_miss_rate::total      0.788889                       # miss rate for ReadCleanReq accesses
system.l2.ReadCleanReq_avg_miss_latency::.cpu.inst 87212.441315                       # average ReadCleanReq miss latency
system.l2.ReadCleanReq_avg_miss_latency::total 87212.441315                       # average ReadCleanReq miss latency
system.l2.ReadCleanReq_mshr_misses::.cpu.inst          426                       # number of ReadCleanReq MSHR misses
system.l2.ReadCleanReq_mshr_misses::total          426                       # number of ReadCleanReq MSHR misses
system.l2.ReadCleanReq_mshr_miss_latency::.cpu.inst     32892500                       # number of ReadCleanReq MSHR miss cycles
system.l2.ReadCleanReq_mshr_miss_latency::total     32892500                       # number of ReadCleanReq MSHR miss cycles
system.l2.ReadCleanReq_mshr_miss_rate::.cpu.inst     0.788889                       # mshr miss rate for ReadCleanReq accesses
system.l2.ReadCleanReq_mshr_miss_rate::total     0.788889                       # mshr miss rate for ReadCleanReq accesses
system.l2.ReadCleanReq_avg_mshr_miss_latency::.cpu.inst 77212.441315                       # average ReadCleanReq mshr miss latency
system.l2.ReadCleanReq_avg_mshr_miss_latency::total 77212.441315                       # average ReadCleanReq mshr miss latency
system.l2.ReadSharedReq_hits::.cpu.data        345689                       # number of ReadSharedReq hits
system.l2.ReadSharedReq_hits::total            345689                       # number of ReadSharedReq hits
system.l2.ReadSharedReq_misses::.cpu.data        73476                       # number of ReadSharedReq misses
system.l2.ReadSharedReq_misses::total           73476                       # number of ReadSharedReq misses
system.l2.ReadSharedReq_miss_latency::.cpu.data   6719396000                       # number of ReadSharedReq miss cycles
system.l2.ReadSharedReq_miss_latency::total   6719396000                       # number of ReadSharedReq miss cycles
system.l2.ReadSharedReq_accesses::.cpu.data       419165                       # number of ReadSharedReq accesses(hits+misses)
system.l2.ReadSharedReq_accesses::total        419165                       # number of ReadSharedReq accesses(hits+misses)
system.l2.ReadSharedReq_miss_rate::.cpu.data     0.175291                       # miss rate for ReadSharedReq accesses
system.l2.ReadSharedReq_miss_rate::total     0.175291                       # miss rate for ReadSharedReq accesses
system.l2.ReadSharedReq_avg_miss_latency::.cpu.data 91450.215036                       # average ReadSharedReq miss latency
system.l2.ReadSharedReq_avg_miss_latency::total 91450.215036                       # average ReadSharedReq miss latency
system.l2.ReadSharedReq_mshr_hits::.cpu.data            5                       # number of ReadSharedReq MSHR hits
system.l2.ReadSharedReq_mshr_hits::total            5                       # number of ReadSharedReq MSHR hits
system.l2.ReadSharedReq_mshr_misses::.cpu.data        73471                       # number of ReadSharedReq MSHR misses
system.l2.ReadSharedReq_mshr_misses::total        73471                       # number of ReadSharedReq MSHR misses
system.l2.ReadSharedReq_mshr_miss_latency::.cpu.data   5984336500                       # number of ReadSharedReq MSHR miss cycles
system.l2.ReadSharedReq_mshr_miss_latency::total   5984336500                       # number of ReadSharedReq MSHR miss cycles
system.l2.ReadSharedReq_mshr_miss_rate::.cpu.data     0.175279                       # mshr miss rate for ReadSharedReq accesses
system.l2.ReadSharedReq_mshr_miss_rate::total     0.175279                       # mshr miss rate for ReadSharedReq accesses
system.l2.ReadSharedReq_avg_mshr_miss_latency::.cpu.data 81451.681616                       # average ReadSharedReq mshr miss latency
system.l2.ReadSharedReq_avg_mshr_miss_latency::total 81451.681616                       # average ReadSharedReq mshr miss latency
system.l2.tags.pwrStateResidencyTicks::UNDEFINED  87405406500                       # Cumulative time (in ticks) in various power states
system.l2.tags.tagsinuse                  4019.438124                       # Cycle average of tags in use
system.l2.tags.total_refs                     1416378                       # Total number of references to valid blocks.
system.l2.tags.sampled_refs                    199500                       # Sample count of references to valid blocks.
system.l2.tags.avg_refs                      7.099639                       # Average number of references to valid blocks.
system.l2.tags.warmup_cycle                     82000                       # Cycle when the warmup percentage was hit.
system.l2.tags.occ_blocks::.writebacks      14.272133                       # Average occupied blocks per requestor
system.l2.tags.occ_blocks::.cpu.inst        17.756646                       # Average occupied blocks per requestor
system.l2.tags.occ_blocks::.cpu.data      3987.409345                       # Average occupied blocks per requestor
system.l2.tags.occ_percent::.writebacks      0.003484                       # Average percentage of cache occupancy
system.l2.tags.occ_percent::.cpu.inst        0.004335                       # Average percentage of cache occupancy
system.l2.tags.occ_percent::.cpu.data        0.973489                       # Average percentage of cache occupancy
system.l2.tags.occ_percent::total            0.981308                       # Average percentage of cache occupancy
system.l2.tags.occ_task_id_blocks::1024          4096                       # Occupied blocks per task id
system.l2.tags.age_task_id_blocks_1024::0          129                       # Occupied blocks per task id
system.l2.tags.age_task_id_blocks_1024::1          445                       # Occupied blocks per task id
system.l2.tags.age_task_id_blocks_1024::2         2852                       # Occupied blocks per task id
system.l2.tags.age_task_id_blocks_1024::3          670                       # Occupied blocks per task id
system.l2.tags.occ_task_id_percent::1024            1                       # Percentage of cache occupancy per task id
system.l2.tags.tag_accesses                  22861820                       # Number of tag accesses
system.l2.tags.data_accesses                 22861820                       # Number of data accesses
system.cpu_voltage_domain.voltage                   1                       # Voltage in Volts
system.mem_ctrls.pwrStateResidencyTicks::UNDEFINED  87405406500                       # Cumulative time (in ticks) in various power states
system.mem_ctrls.bytes_read::.cpu.inst          54528                       # Number of bytes read from this memory
system.mem_ctrls.bytes_read::.cpu.data       25459584                       # Number of bytes read from this memory
system.mem_ctrls.bytes_read::total           25514112                       # Number of bytes read from this memory
system.mem_ctrls.bytes_inst_read::.cpu.inst        54528                       # Number of instructions bytes read from this memory
system.mem_ctrls.bytes_inst_read::total         54528                       # Number of instructions bytes read from this memory
system.mem_ctrls.bytes_written::.writebacks     18801152                       # Number of bytes written to this memory
system.mem_ctrls.bytes_written::total        18801152                       # Number of bytes written to this memory
system.mem_ctrls.num_reads::.cpu.inst             426                       # Number of read requests responded to by this memory
system.mem_ctrls.num_reads::.cpu.data          198903                       # Number of read requests responded to by this memory
system.mem_ctrls.num_reads::total              199329                       # Number of read requests responded to by this memory
system.mem_ctrls.num_writes::.writebacks       146884                       # Number of write requests responded to by this memory
system.mem_ctrls.num_writes::total             146884                       # Number of write requests responded to by this memory
system.mem_ctrls.bw_read::.cpu.inst            623852                       # Total read bandwidth from this memory (bytes/s)
system.mem_ctrls.bw_read::.cpu.data         291281570                       # Total read bandwidth from this memory (bytes/s)
system.mem_ctrls.bw_read::total             291905421                       # Total read bandwidth from this memory (bytes/s)
system.mem_ctrls.bw_inst_read::.cpu.inst       623852                       # Instruction read bandwidth from this memory (bytes/s)
system.mem_ctrls.bw_inst_read::total           623852                       # Instruction read bandwidth from this memory (bytes/s)
system.mem_ctrls.bw_write::.writebacks      215102850                       # Write bandwidth from this memory (bytes/s)
system.mem_ctrls.bw_write::total            215102850                       # Write bandwidth from this memory (bytes/s)
system.mem_ctrls.bw_total::.writebacks      215102850                       # Total bandwidth to/from this memory (bytes/s)
system.mem_ctrls.bw_total::.cpu.inst           623852                       # Total bandwidth to/from this memory (bytes/s)
system.mem_ctrls.bw_total::.cpu.data        291281570                       # Total bandwidth to/from this memory (bytes/s)
system.mem_ctrls.bw_total::total            507008271                       # Total bandwidth to/from this memory (bytes/s)
system.mem_ctrls.avgPriority_.writebacks::samples    293768.00                       # Average QoS priority value for accepted requests
system.mem_ctrls.avgPriority_.cpu.inst::samples       852.00                       # Average QoS priority value for accepted requests
system.mem_ctrls.avgPriority_.cpu.data::samples    396601.00                       # Average QoS priority value for accepted requests
system.mem_ctrls.priorityMinLatency      0.000000018750                       # per QoS priority minimum request to response latency (s)
system.mem_ctrls.priorityMaxLatency      0.026281760500                       # per QoS priority maximum request to response latency (s)
system.mem_ctrls.numReadWriteTurnArounds        17316                       # Number of turnarounds from READ to WRITE
system.mem_ctrls.numWriteReadTurnArounds        17316                       # Number of turnarounds from WRITE to READ
system.mem_ctrls.numStayReadState              742927                       # Number of times bus staying in READ state
system.mem_ctrls.numStayWriteState             276767                       # Number of times bus staying in WRITE state
system.mem_ctrls.readReqs                      199330                       # Number of read requests accepted
system.mem_ctrls.writeReqs                     146884                       # Number of write requests accepted
system.mem_ctrls.readBursts                    398660                       # Number of DRAM read bursts, including those serviced by the write queue
system.mem_ctrls.writeBursts                   293768                       # Number of DRAM write bursts, including those merged in the write queue
system.mem_ctrls.servicedByWrQ                   1207                       # Number of DRAM read bursts serviced by the write queue
system.mem_ctrls.mergedWrBursts                     0                       # Number of DRAM write bursts merged with an existing one
system.mem_ctrls.neitherReadNorWriteReqs            0                       # Number of requests that are neither read nor write
system.mem_ctrls.perBankRdBursts::0             26069                       # Per bank write bursts
system.mem_ctrls.perBankRdBursts::1             24368                       # Per bank write bursts
system.mem_ctrls.perBankRdBursts::2             23904                       # Per bank write bursts
system.mem_ctrls.perBankRdBursts::3             24729                       # Per bank write bursts
system.mem_ctrls.perBankRdBursts::4             27375                       # Per bank write bursts
system.mem_ctrls.perBankRdBursts::5             26345                       # Per bank write bursts
system.mem_ctrls.perBankRdBursts::6             23307                       # Per bank write bursts
system.mem_ctrls.perBankRdBursts::7             24323                       # Per bank write bursts
system.mem_ctrls.perBankRdBursts::8             25279                       # Per bank write bursts
system.mem_ctrls.perBankRdBursts::9             25268                       # Per bank write bursts
system.mem_ctrls.perBankRdBursts::10            23247                       # Per bank write bursts
system.mem_ctrls.perBankRdBursts::11            23369                       # Per bank write bursts
system.mem_ctrls.perBankRdBursts::12            25758                       # Per bank write bursts
system.mem_ctrls.perBankRdBursts::13            25834                       # Per bank write bursts
system.mem_ctrls.perBankRdBursts::14            23537                       # Per bank write bursts
system.mem_ctrls.perBankRdBursts::15            24741                       # Per bank write bursts
system.mem_ctrls.perBankWrBursts::0             19330                       # Per bank write bursts
system.mem_ctrls.perBankWrBursts::1             17692                       # Per bank write bursts
system.mem_ctrls.perBankWrBursts::2             17344                       # Per bank write bursts
system.mem_ctrls.perBankWrBursts::3             18210                       # Per bank write bursts
system.mem_ctrls.perBankWrBursts::4             21238                       # Per bank write bursts
system.mem_ctrls.perBankWrBursts::5             19930                       # Per bank write bursts
system.mem_ctrls.perBankWrBursts::6             16770                       # Per bank write bursts
system.mem_ctrls.perBankWrBursts::7             17738                       # Per bank write bursts
system.mem_ctrls.perBankWrBursts::8             18652                       # Per bank write bursts
system.mem_ctrls.perBankWrBursts::9             18886                       # Per bank write bursts
system.mem_ctrls.perBankWrBursts::10            17038                       # Per bank write bursts
system.mem_ctrls.perBankWrBursts::11            17305                       # Per bank write bursts
system.mem_ctrls.perBankWrBursts::12            19238                       # Per bank write bursts
system.mem_ctrls.perBankWrBursts::13            19272                       # Per bank write bursts
system.mem_ctrls.perBankWrBursts::14            16892                       # Per bank write bursts
system.mem_ctrls.perBankWrBursts::15            18212                       # Per bank write bursts
system.mem_ctrls.avgRdQLen                       2.11                       # Average read queue length when enqueuing
system.mem_ctrls.avgWrQLen                      25.89                       # Average write queue length when enqueuing
system.mem_ctrls.totQLat                   9118545000                       # Total ticks spent queuing
system.mem_ctrls.totBusLat                 1987265000                       # Total ticks spent in databus transfers
system.mem_ctrls.totMemAccLat             16570788750                       # Total ticks spent from burst creation until serviced by the DRAM
system.mem_ctrls.avgQLat                     22942.45                       # Average queueing delay per DRAM burst
system.mem_ctrls.avgBusLat                    5000.00                       # Average bus latency per DRAM burst
system.mem_ctrls.avgMemAccLat                41692.45                       # Average memory access latency per DRAM burst
system.mem_ctrls.numRdRetry                         0                       # Number of times read queue was full causing retry
system.mem_ctrls.numWrRetry                         0                       # Number of times write queue was full causing retry
system.mem_ctrls.readRowHits                   293464                       # Number of row buffer hits during reads
system.mem_ctrls.writeRowHits                  202899                       # Number of row buffer hits during writes
system.mem_ctrls.readRowHitRate                 73.84                       # Row buffer hit rate for reads
system.mem_ctrls.writeRowHitRate                69.07                       # Row buffer hit rate for writes
system.mem_ctrls.readPktSize::0                     0                       # Read request sizes (log2)
system.mem_ctrls.readPktSize::1                     0                       # Read request sizes (log2)
system.mem_ctrls.readPktSize::2                     0                       # Read request sizes (log2)
system.mem_ctrls.readPktSize::3                     0                       # Read request sizes (log2)
system.mem_ctrls.readPktSize::4                     0                       # Read request sizes (log2)
system.mem_ctrls.readPktSize::5                     0                       # Read request sizes (log2)
system.mem_ctrls.readPktSize::6                398660                       # Read request sizes (log2)
system.mem_ctrls.writePktSize::0                    0                       # Write request sizes (log2)
system.mem_ctrls.writePktSize::1                    0                       # Write request sizes (log2)
system.mem_ctrls.writePktSize::2                    0                       # Write request sizes (log2)
system.mem_ctrls.writePktSize::3                    0                       # Write request sizes (log2)
system.mem_ctrls.writePktSize::4                    0                       # Write request sizes (log2)
system.mem_ctrls.writePktSize::5                    0                       # Write request sizes (log2)
system.mem_ctrls.writePktSize::6               293768                       # Write request sizes (log2)
system.mem_ctrls.rdQLenPdf::0                  168700                       # What read queue length does an incoming req see
system.mem_ctrls.rdQLenPdf::1                  170061                       # What read queue length does an incoming req see
system.mem_ctrls.rdQLenPdf::2                   30048                       # What read queue length does an incoming req see
system.mem_ctrls.rdQLenPdf::3                   28629                       # What read queue length does an incoming req see
system.mem_ctrls.rdQLenPdf::4                       7                       # What read queue length does an incoming req see
system.mem_ctrls.rdQLenPdf::5                       6                       # What read queue length does an incoming req see
system.mem_ctrls.rdQLenPdf::6                       1                       # What read queue length does an incoming req see
system.mem_ctrls.rdQLenPdf::7                       1                       # What read queue length does an incoming req see
system.mem_ctrls.rdQLenPdf::8                       0                       # What read queue length does an incoming req see
system.mem_ctrls.rdQLenPdf::9                       0                       # What read queue length does an incoming req see
system.mem_ctrls.rdQLenPdf::10                      0                       # What read queue length does an incoming req see
system.mem_ctrls.rdQLenPdf::11                      0                       # What read queue length does an incoming req see
system.mem_ctrls.rdQLenPdf::12                      0                       # What read queue length does an incoming req see
system.mem_ctrls.rdQLenPdf::13                      0                       # What read queue length does an incoming req see
system.mem_ctrls.rdQLenPdf::14                      0                       # What read queue length does an incoming req see
system.mem_ctrls.rdQLenPdf::15                      0                       # What read queue length does an incoming req see
system.mem_ctrls.rdQLenPdf::16                      0                       # What read queue length does an incoming req see
system.mem_ctrls.rdQLenPdf::17                      0                       # What read queue length does an incoming req see
system.mem_ctrls.rdQLenPdf::18                      0                       # What read queue length does an incoming req see
system.mem_ctrls.rdQLenPdf::19                      0                       # What read queue length does an incoming req see
system.mem_ctrls.rdQLenPdf::20                      0                       # What read queue length does an incoming req see
system.mem_ctrls.rdQLenPdf::21                      0                       # What read queue length does an incoming req see
system.mem_ctrls.rdQLenPdf::22                      0                       # What read queue length does an incoming req see
system.mem_ctrls.rdQLenPdf::23                      0                       # What read queue length does an incoming req see
system.mem_ctrls.rdQLenPdf::24                      0                       # What read queue length does an incoming req see
system.mem_ctrls.rdQLenPdf::25                      0                       # What read queue length does an incoming req see
system.mem_ctrls.rdQLenPdf::26                      0                       # What read queue length does an incoming req see
system.mem_ctrls.rdQLenPdf::27                      0                       # What read queue length does an incoming req see
system.mem_ctrls.rdQLenPdf::28                      0                       # What read queue length does an incoming req see
system.mem_ctrls.rdQLenPdf::29                      0                       # What read queue length does an incoming req see
system.mem_ctrls.rdQLenPdf::30                      0                       # What read queue length does an incoming req see
system.mem_ctrls.rdQLenPdf::31                      0                       # What read queue length does an incoming req see
system.mem_ctrls.wrQLenPdf::0                       1                       # What write queue length does an incoming req see
system.mem_ctrls.wrQLenPdf::1                       1                       # What write queue length does an incoming req see
system.mem_ctrls.wrQLenPdf::2                       1                       # What write queue length does an incoming req see
system.mem_ctrls.wrQLenPdf::3                       1                       # What write queue length does an incoming req see
system.mem_ctrls.wrQLenPdf::4                       1                       # What write queue length does an incoming req see
system.mem_ctrls.wrQLenPdf::5                       1                       # What write queue length does an incoming req see
system.mem_ctrls.wrQLenPdf::6                       1                       # What write queue length does an incoming req see
system.mem_ctrls.wrQLenPdf::7                       1                       # What write queue length does an incoming req see
system.mem_ctrls.wrQLenPdf::8                       1                       # What write queue length does an incoming req see
system.mem_ctrls.wrQLenPdf::9                       1                       # What write queue length does an incoming req see
system.mem_ctrls.wrQLenPdf::10                      1                       # What write queue length does an incoming req see
system.mem_ctrls.wrQLenPdf::11                      1                       # What write queue length does an incoming req see
system.mem_ctrls.wrQLenPdf::12                      1                       # What write queue length does an incoming req see
system.mem_ctrls.wrQLenPdf::13                      1                       # What write queue length does an incoming req see
system.mem_ctrls.wrQLenPdf::14                      1                       # What write queue length does an incoming req see
system.mem_ctrls.wrQLenPdf::15                   6926                       # What write queue length does an incoming req see
system.mem_ctrls.wrQLenPdf::16                   7118                       # What write queue length does an incoming req see
system.mem_ctrls.wrQLenPdf::17                  13226                       # What write queue length does an incoming req see
system.mem_ctrls.wrQLenPdf::18                  13895                       # What write queue length does an incoming req see
system.mem_ctrls.wrQLenPdf::19                  15639                       # What write queue length does an incoming req see
system.mem_ctrls.wrQLenPdf::20                  17629                       # What write queue length does an incoming req see
system.mem_ctrls.wrQLenPdf::21                  17637                       # What write queue length does an incoming req see
system.mem_ctrls.wrQLenPdf::22                  17636                       # What write queue length does an incoming req see
system.mem_ctrls.wrQLenPdf::23                  17585                       # What write queue length does an incoming req see
system.mem_ctrls.wrQLenPdf::24                  17651                       # What write queue length does an incoming req see
system.mem_ctrls.wrQLenPdf::25                  18676                       # What write queue length does an incoming req see
system.mem_ctrls.wrQLenPdf::26                  19513                       # What write queue length does an incoming req see
system.mem_ctrls.wrQLenPdf::27                  18527                       # What write queue length does an incoming req see
system.mem_ctrls.wrQLenPdf::28                  17774                       # What write queue length does an incoming req see
system.mem_ctrls.wrQLenPdf::29                  18597                       # What write queue length does an incoming req see
system.mem_ctrls.wrQLenPdf::30                  18299                       # What write queue length does an incoming req see
system.mem_ctrls.wrQLenPdf::31                  17332                       # What write queue length does an incoming req see
system.mem_ctrls.wrQLenPdf::32                  17350                       # What write queue length does an incoming req see
system.mem_ctrls.wrQLenPdf::33                   2729                       # What write queue length does an incoming req see
system.mem_ctrls.wrQLenPdf::34                     11                       # What write queue length does an incoming req see
system.mem_ctrls.wrQLenPdf::35                      3                       # What write queue length does an incoming req see
system.mem_ctrls.wrQLenPdf::36                      0                       # What write queue length does an incoming req see
system.mem_ctrls.wrQLenPdf::37                      0                       # What write queue length does an incoming req see
system.mem_ctrls.wrQLenPdf::38                      0                       # What write queue length does an incoming req see
system.mem_ctrls.wrQLenPdf::39                      0                       # What write queue length does an incoming req see
system.mem_ctrls.wrQLenPdf::40                      0                       # What write queue length does an incoming req see
system.mem_ctrls.wrQLenPdf::41                      0                       # What write queue length does an incoming req see
system.mem_ctrls.wrQLenPdf::42                      0                       # What write queue length does an incoming req see
system.mem_ctrls.wrQLenPdf::43                      0                       # What write queue length does an incoming req see
system.mem_ctrls.wrQLenPdf::44                      0                       # What write queue length does an incoming req see
system.mem_ctrls.wrQLenPdf::45                      0                       # What write queue length does an incoming req see
system.mem_ctrls.wrQLenPdf::46                      0                       # What write queue length does an incoming req see
system.mem_ctrls.wrQLenPdf::47                      0                       # What write queue length does an incoming req see
system.mem_ctrls.wrQLenPdf::48                      0                       # What write queue length does an incoming req see
system.mem_ctrls.wrQLenPdf::49                      0                       # What write queue length does an incoming req see
system.mem_ctrls.wrQLenPdf::50                      0                       # What write queue length does an incoming req see
system.mem_ctrls.wrQLenPdf::51                      0                       # What write queue length does an incoming req see
system.mem_ctrls.wrQLenPdf::52                      0                       # What write queue length does an incoming req see
system.mem_ctrls.wrQLenPdf::53                      0                       # What write queue length does an incoming req see
system.mem_ctrls.wrQLenPdf::54                      0                       # What write queue length does an incoming req see
system.mem_ctrls.wrQLenPdf::55                      0                       # What write queue length does an incoming req see
system.mem_ctrls.wrQLenPdf::56                      0                       # What write queue length does an incoming req see
system.mem_ctrls.wrQLenPdf::57                      0                       # What write queue length does an incoming req see
system.mem_ctrls.wrQLenPdf::58                      0                       # What write queue length does an incoming req see
system.mem_ctrls.wrQLenPdf::59                      0                       # What write queue length does an incoming req see
system.mem_ctrls.wrQLenPdf::60                      0                       # What write queue length does an incoming req see
system.mem_ctrls.wrQLenPdf::61                      0                       # What write queue length does an incoming req see
system.mem_ctrls.wrQLenPdf::62                      0                       # What write queue length does an incoming req see
system.mem_ctrls.wrQLenPdf::63                      0                       # What write queue length does an incoming req see
system.mem_ctrls.bytesPerActivate::samples       194824                       # Bytes accessed per row activation
system.mem_ctrls.bytesPerActivate::mean    227.050466                       # Bytes accessed per row activation
system.mem_ctrls.bytesPerActivate::gmean   165.305900                       # Bytes accessed per row activation
system.mem_ctrls.bytesPerActivate::stdev   256.213742                       # Bytes accessed per row activation
system.mem_ctrls.bytesPerActivate::0-127        10195      5.23%      5.23% # Bytes accessed per row activation
system.mem_ctrls.bytesPerActivate::128-255       144105     73.97%     79.20% # Bytes accessed per row activation
system.mem_ctrls.bytesPerActivate::256-383        16031      8.23%     87.43% # Bytes accessed per row activation
system.mem_ctrls.bytesPerActivate::384-511         3255      1.67%     89.10% # Bytes accessed per row activation
system.mem_ctrls.bytesPerActivate::512-639         2053      1.05%     90.15% # Bytes accessed per row activation
system.mem_ctrls.bytesPerActivate::640-767         1839      0.94%     91.10% # Bytes accessed per row activation
system.mem_ctrls.bytesPerActivate::768-895         1010      0.52%     91.61% # Bytes accessed per row activation
system.mem_ctrls.bytesPerActivate::896-1023         1005      0.52%     92.13% # Bytes accessed per row activation
system.mem_ctrls.bytesPerActivate::1024-1151        15331      7.87%    100.00% # Bytes accessed per row activation
system.mem_ctrls.bytesPerActivate::total       194824                       # Bytes accessed per row activation
system.mem_ctrls.rdPerTurnAround::samples        17316                       # Reads before turning the bus around for writes
system.mem_ctrls.rdPerTurnAround::mean      22.952587                       # Reads before turning the bus around for writes
system.mem_ctrls.rdPerTurnAround::stdev     51.132661                       # Reads before turning the bus around for writes
system.mem_ctrls.rdPerTurnAround::0-127         17238     99.55%     99.55% # Reads before turning the bus around for writes
system.mem_ctrls.rdPerTurnAround::128-255           65      0.38%     99.92% # Reads before turning the bus around for writes
system.mem_ctrls.rdPerTurnAround::256-383            1      0.01%     99.93% # Reads before turning the bus around for writes
system.mem_ctrls.rdPerTurnAround::384-511            1      0.01%     99.94% # Reads before turning the bus around for writes
system.mem_ctrls.rdPerTurnAround::768-895            1      0.01%     99.94% # Reads before turning the bus around for writes
system.mem_ctrls.rdPerTurnAround::1664-1791            1      0.01%     99.95% # Reads before turning the bus around for writes
system.mem_ctrls.rdPerTurnAround::1920-2047            5      0.03%     99.98% # Reads before turning the bus around for writes
[...]
system.cpu.icache.ReadReq_avg_miss_latency::total 73687.962963                       # average ReadReq miss latency
system.cpu.icache.ReadReq_mshr_misses::.cpu.inst          540                       # number of ReadReq MSHR misses
system.cpu.icache.ReadReq_mshr_misses::total          540                       # number of ReadReq MSHR misses
system.cpu.icache.ReadReq_mshr_miss_latency::.cpu.inst     39251500                       # number of ReadReq MSHR miss cycles
system.cpu.icache.ReadReq_mshr_miss_latency::total     39251500                       # number of ReadReq MSHR miss cycles
system.cpu.icache.ReadReq_mshr_miss_rate::.cpu.inst     0.000067                       # mshr miss rate for ReadReq accesses
system.cpu.icache.ReadReq_mshr_miss_rate::total     0.000067                       # mshr miss rate for ReadReq accesses
system.cpu.icache.ReadReq_avg_mshr_miss_latency::.cpu.inst 72687.962963                       # average ReadReq mshr miss latency
system.cpu.icache.ReadReq_avg_mshr_miss_latency::total 72687.962963                       # average ReadReq mshr miss latency
system.cpu.icache.tags.pwrStateResidencyTicks::UNDEFINED  87405406500                       # Cumulative time (in ticks) in various power states
system.cpu.icache.tags.tagsinuse           204.695032                       # Cycle average of tags in use
system.cpu.icache.tags.total_refs             8051194                       # Total number of references to valid blocks.
system.cpu.icache.tags.sampled_refs               540                       # Sample count of references to valid blocks.
system.cpu.icache.tags.avg_refs          14909.618519                       # Average number of references to valid blocks.
system.cpu.icache.tags.warmup_cycle             92500                       # Cycle when the warmup percentage was hit.
system.cpu.icache.tags.occ_blocks::.cpu.inst   204.695032                       # Average occupied blocks per requestor
system.cpu.icache.tags.occ_percent::.cpu.inst     0.799590                       # Average percentage of cache occupancy
system.cpu.icache.tags.occ_percent::total     0.799590                       # Average percentage of cache occupancy
system.cpu.icache.tags.occ_task_id_blocks::1024          238                       # Occupied blocks per task id
system.cpu.icache.tags.age_task_id_blocks_1024::3           52                       # Occupied blocks per task id
system.cpu.icache.tags.age_task_id_blocks_1024::4          186                       # Occupied blocks per task id
system.cpu.icache.tags.occ_task_id_percent::1024     0.929688                       # Percentage of cache occupancy per task id
system.cpu.icache.tags.tag_accesses          16102928                       # Number of tag accesses
system.cpu.icache.tags.data_accesses         16102928                       # Number of data accesses
system.cpu.dtb.walker.pwrStateResidencyTicks::UNDEFINED  87405406500                       # Cumulative time (in ticks) in various power states
system.cpu.dtb.stage2_mmu.stage2_tlb.walker.pwrStateResidencyTicks::UNDEFINED  87405406500                       # Cumulative time (in ticks) in various power states
system.cpu.dcache.pwrStateResidencyTicks::UNDEFINED  87405406500                       # Cumulative time (in ticks) in various power states
system.cpu.dcache.demand_hits::.cpu.data     51327736                       # number of demand (read+write) hits
system.cpu.dcache.demand_hits::total         51327736                       # number of demand (read+write) hits
system.cpu.dcache.overall_hits::.cpu.data     51328336                       # number of overall hits
system.cpu.dcache.overall_hits::total        51328336                       # number of overall hits
system.cpu.dcache.demand_misses::.cpu.data       739954                       # number of demand (read+write) misses
system.cpu.dcache.demand_misses::total         739954                       # number of demand (read+write) misses
system.cpu.dcache.overall_misses::.cpu.data       747773                       # number of overall misses
system.cpu.dcache.overall_misses::total        747773                       # number of overall misses
system.cpu.dcache.demand_miss_latency::.cpu.data  28222374500                       # number of demand (read+write) miss cycles
system.cpu.dcache.demand_miss_latency::total  28222374500                       # number of demand (read+write) miss cycles
system.cpu.dcache.overall_miss_latency::.cpu.data  28222374500                       # number of overall miss cycles
system.cpu.dcache.overall_miss_latency::total  28222374500                       # number of overall miss cycles
system.cpu.dcache.demand_accesses::.cpu.data     52067690                       # number of demand (read+write) accesses
system.cpu.dcache.demand_accesses::total     52067690                       # number of demand (read+write) accesses
system.cpu.dcache.overall_accesses::.cpu.data     52076109                       # number of overall (read+write) accesses
system.cpu.dcache.overall_accesses::total     52076109                       # number of overall (read+write) accesses
system.cpu.dcache.demand_miss_rate::.cpu.data     0.014211                       # miss rate for demand accesses
system.cpu.dcache.demand_miss_rate::total     0.014211                       # miss rate for demand accesses
system.cpu.dcache.overall_miss_rate::.cpu.data     0.014359                       # miss rate for overall accesses
system.cpu.dcache.overall_miss_rate::total     0.014359                       # miss rate for overall accesses
system.cpu.dcache.demand_avg_miss_latency::.cpu.data 38140.714828                       # average overall miss latency
system.cpu.dcache.demand_avg_miss_latency::total 38140.714828                       # average overall miss latency
system.cpu.dcache.overall_avg_miss_latency::.cpu.data 37741.900951                       # average overall miss latency
system.cpu.dcache.overall_avg_miss_latency::total 37741.900951                       # average overall miss latency
system.cpu.dcache.blocked_cycles::no_mshrs            0                       # number of cycles access was blocked
system.cpu.dcache.blocked_cycles::no_targets            0                       # number of cycles access was blocked
system.cpu.dcache.blocked::no_mshrs                 0                       # number of cycles access was blocked
system.cpu.dcache.blocked::no_targets               0                       # number of cycles access was blocked
system.cpu.dcache.avg_blocked_cycles::no_mshrs          nan                       # average number of cycles each access was blocked
system.cpu.dcache.avg_blocked_cycles::no_targets          nan                       # average number of cycles each access was blocked
system.cpu.dcache.writebacks::.writebacks       643613                       # number of writebacks
system.cpu.dcache.writebacks::total            643613                       # number of writebacks
system.cpu.dcache.demand_mshr_hits::.cpu.data        35792                       # number of demand (read+write) MSHR hits
system.cpu.dcache.demand_mshr_hits::total        35792                       # number of demand (read+write) MSHR hits
system.cpu.dcache.overall_mshr_hits::.cpu.data        35792                       # number of overall MSHR hits
system.cpu.dcache.overall_mshr_hits::total        35792                       # number of overall MSHR hits
system.cpu.dcache.demand_mshr_misses::.cpu.data       704162                       # number of demand (read+write) MSHR misses
system.cpu.dcache.demand_mshr_misses::total       704162                       # number of demand (read+write) MSHR misses
system.cpu.dcache.overall_mshr_misses::.cpu.data       708117                       # number of overall MSHR misses
system.cpu.dcache.overall_mshr_misses::total       708117                       # number of overall MSHR misses
system.cpu.dcache.demand_mshr_miss_latency::.cpu.data  25075287500                       # number of demand (read+write) MSHR miss cycles
system.cpu.dcache.demand_mshr_miss_latency::total  25075287500                       # number of demand (read+write) MSHR miss cycles
system.cpu.dcache.overall_mshr_miss_latency::.cpu.data  25400685500                       # number of overall MSHR miss cycles
system.cpu.dcache.overall_mshr_miss_latency::total  25400685500                       # number of overall MSHR miss cycles
system.cpu.dcache.demand_mshr_miss_rate::.cpu.data     0.013524                       # mshr miss rate for demand accesses
system.cpu.dcache.demand_mshr_miss_rate::total     0.013524                       # mshr miss rate for demand accesses
system.cpu.dcache.overall_mshr_miss_rate::.cpu.data     0.013598                       # mshr miss rate for overall accesses
system.cpu.dcache.overall_mshr_miss_rate::total     0.013598                       # mshr miss rate for overall accesses
system.cpu.dcache.demand_avg_mshr_miss_latency::.cpu.data 35610.111736                       # average overall mshr miss latency
system.cpu.dcache.demand_avg_mshr_miss_latency::total 35610.111736                       # average overall mshr miss latency
system.cpu.dcache.overall_avg_mshr_miss_latency::.cpu.data 35870.746642                       # average overall mshr miss latency
system.cpu.dcache.overall_avg_mshr_miss_latency::total 35870.746642                       # average overall mshr miss latency
system.cpu.dcache.replacements                 707604                       # number of replacements
system.cpu.dcache.ReadReq_hits::.cpu.data     40699794                       # number of ReadReq hits
system.cpu.dcache.ReadReq_hits::total        40699794                       # number of ReadReq hits
system.cpu.dcache.ReadReq_misses::.cpu.data       417804                       # number of ReadReq misses
system.cpu.dcache.ReadReq_misses::total        417804                       # number of ReadReq misses
system.cpu.dcache.ReadReq_miss_latency::.cpu.data  11225253500                       # number of ReadReq miss cycles
system.cpu.dcache.ReadReq_miss_latency::total  11225253500                       # number of ReadReq miss cycles
system.cpu.dcache.ReadReq_accesses::.cpu.data     41117598                       # number of ReadReq accesses(hits+misses)
system.cpu.dcache.ReadReq_accesses::total     41117598                       # number of ReadReq accesses(hits+misses)
system.cpu.dcache.ReadReq_miss_rate::.cpu.data     0.010161                       # miss rate for ReadReq accesses
system.cpu.dcache.ReadReq_miss_rate::total     0.010161                       # miss rate for ReadReq accesses
system.cpu.dcache.ReadReq_avg_miss_latency::.cpu.data 26867.271496                       # average ReadReq miss latency
system.cpu.dcache.ReadReq_avg_miss_latency::total 26867.271496                       # average ReadReq miss latency
system.cpu.dcache.ReadReq_mshr_hits::.cpu.data         2594                       # number of ReadReq MSHR hits
system.cpu.dcache.ReadReq_mshr_hits::total         2594                       # number of ReadReq MSHR hits
system.cpu.dcache.ReadReq_mshr_misses::.cpu.data       415210                       # number of ReadReq MSHR misses
system.cpu.dcache.ReadReq_mshr_misses::total       415210                       # number of ReadReq MSHR misses
system.cpu.dcache.ReadReq_mshr_miss_latency::.cpu.data  10679020500                       # number of ReadReq MSHR miss cycles
system.cpu.dcache.ReadReq_mshr_miss_latency::total  10679020500                       # number of ReadReq MSHR miss cycles
system.cpu.dcache.ReadReq_mshr_miss_rate::.cpu.data     0.010098                       # mshr miss rate for ReadReq accesses
system.cpu.dcache.ReadReq_mshr_miss_rate::total     0.010098                       # mshr miss rate for ReadReq accesses
system.cpu.dcache.ReadReq_avg_mshr_miss_latency::.cpu.data 25719.564799                       # average ReadReq mshr miss latency
system.cpu.dcache.ReadReq_avg_mshr_miss_latency::total 25719.564799                       # average ReadReq mshr miss latency
system.cpu.dcache.WriteReq_hits::.cpu.data     10627942                       # number of WriteReq hits
system.cpu.dcache.WriteReq_hits::total       10627942                       # number of WriteReq hits
system.cpu.dcache.WriteReq_misses::.cpu.data       322150                       # number of WriteReq misses
system.cpu.dcache.WriteReq_misses::total       322150                       # number of WriteReq misses
system.cpu.dcache.WriteReq_miss_latency::.cpu.data  16997121000                       # number of WriteReq miss cycles
system.cpu.dcache.WriteReq_miss_latency::total  16997121000                       # number of WriteReq miss cycles
system.cpu.dcache.WriteReq_accesses::.cpu.data     10950092                       # number of WriteReq accesses(hits+misses)
system.cpu.dcache.WriteReq_accesses::total     10950092                       # number of WriteReq accesses(hits+misses)
system.cpu.dcache.WriteReq_miss_rate::.cpu.data     0.029420                       # miss rate for WriteReq accesses
system.cpu.dcache.WriteReq_miss_rate::total     0.029420                       # miss rate for WriteReq accesses
system.cpu.dcache.WriteReq_avg_miss_latency::.cpu.data 52761.511718                       # average WriteReq miss latency
system.cpu.dcache.WriteReq_avg_miss_latency::total 52761.511718                       # average WriteReq miss latency
system.cpu.dcache.WriteReq_mshr_hits::.cpu.data        33198                       # number of WriteReq MSHR hits
system.cpu.dcache.WriteReq_mshr_hits::total        33198                       # number of WriteReq MSHR hits
system.cpu.dcache.WriteReq_mshr_misses::.cpu.data       288952                       # number of WriteReq MSHR misses
system.cpu.dcache.WriteReq_mshr_misses::total       288952                       # number of WriteReq MSHR misses
system.cpu.dcache.WriteReq_mshr_miss_latency::.cpu.data  14396267000                       # number of WriteReq MSHR miss cycles
system.cpu.dcache.WriteReq_mshr_miss_latency::total  14396267000                       # number of WriteReq MSHR miss cycles
system.cpu.dcache.WriteReq_mshr_miss_rate::.cpu.data     0.026388                       # mshr miss rate for WriteReq accesses
system.cpu.dcache.WriteReq_mshr_miss_rate::total     0.026388                       # mshr miss rate for WriteReq accesses
system.cpu.dcache.WriteReq_avg_mshr_miss_latency::.cpu.data 49822.347656                       # average WriteReq mshr miss latency
system.cpu.dcache.WriteReq_avg_mshr_miss_latency::total 49822.347656                       # average WriteReq mshr miss latency
system.cpu.dcache.SoftPFReq_hits::.cpu.data          600                       # number of SoftPFReq hits
system.cpu.dcache.SoftPFReq_hits::total           600                       # number of SoftPFReq hits
system.cpu.dcache.SoftPFReq_misses::.cpu.data         7819                       # number of SoftPFReq misses
system.cpu.dcache.SoftPFReq_misses::total         7819                       # number of SoftPFReq misses
system.cpu.dcache.SoftPFReq_accesses::.cpu.data         8419                       # number of SoftPFReq accesses(hits+misses)
system.cpu.dcache.SoftPFReq_accesses::total         8419                       # number of SoftPFReq accesses(hits+misses)
system.cpu.dcache.SoftPFReq_miss_rate::.cpu.data     0.928733                       # miss rate for SoftPFReq accesses
system.cpu.dcache.SoftPFReq_miss_rate::total     0.928733                       # miss rate for SoftPFReq accesses
system.cpu.dcache.SoftPFReq_mshr_misses::.cpu.data         3955                       # number of SoftPFReq MSHR misses
system.cpu.dcache.SoftPFReq_mshr_misses::total         3955                       # number of SoftPFReq MSHR misses
system.cpu.dcache.SoftPFReq_mshr_miss_latency::.cpu.data    325398000                       # number of SoftPFReq MSHR miss cycles
system.cpu.dcache.SoftPFReq_mshr_miss_latency::total    325398000                       # number of SoftPFReq MSHR miss cycles
system.cpu.dcache.SoftPFReq_mshr_miss_rate::.cpu.data     0.469771                       # mshr miss rate for SoftPFReq accesses
system.cpu.dcache.SoftPFReq_mshr_miss_rate::total     0.469771                       # mshr miss rate for SoftPFReq accesses
system.cpu.dcache.SoftPFReq_avg_mshr_miss_latency::.cpu.data 82275.094817                       # average SoftPFReq mshr miss latency
system.cpu.dcache.SoftPFReq_avg_mshr_miss_latency::total 82275.094817                       # average SoftPFReq mshr miss latency
system.cpu.dcache.LoadLockedReq_hits::.cpu.data           38                       # number of LoadLockedReq hits
system.cpu.dcache.LoadLockedReq_hits::total           38                       # number of LoadLockedReq hits
system.cpu.dcache.LoadLockedReq_accesses::.cpu.data           38                       # number of LoadLockedReq accesses(hits+misses)
system.cpu.dcache.LoadLockedReq_accesses::total           38                       # number of LoadLockedReq accesses(hits+misses)
system.cpu.dcache.StoreCondReq_hits::.cpu.data           38                       # number of StoreCondReq hits
system.cpu.dcache.StoreCondReq_hits::total           38                       # number of StoreCondReq hits
system.cpu.dcache.StoreCondReq_accesses::.cpu.data           38                       # number of StoreCondReq accesses(hits+misses)
system.cpu.dcache.StoreCondReq_accesses::total           38                       # number of StoreCondReq accesses(hits+misses)
system.cpu.dcache.tags.pwrStateResidencyTicks::UNDEFINED  87405406500                       # Cumulative time (in ticks) in various power states
system.cpu.dcache.tags.tagsinuse           504.545908                       # Cycle average of tags in use
system.cpu.dcache.tags.total_refs            52036528                       # Total number of references to valid blocks.
system.cpu.dcache.tags.sampled_refs            708116                       # Sample count of references to valid blocks.
system.cpu.dcache.tags.avg_refs             73.485881                       # Average number of references to valid blocks.
system.cpu.dcache.tags.warmup_cycle            186500                       # Cycle when the warmup percentage was hit.
system.cpu.dcache.tags.occ_blocks::.cpu.data   504.545908                       # Average occupied blocks per requestor
system.cpu.dcache.tags.occ_percent::.cpu.data     0.985441                       # Average percentage of cache occupancy
system.cpu.dcache.tags.occ_percent::total     0.985441                       # Average percentage of cache occupancy
system.cpu.dcache.tags.occ_task_id_blocks::1024          512                       # Occupied blocks per task id
system.cpu.dcache.tags.age_task_id_blocks_1024::0          154                       # Occupied blocks per task id
system.cpu.dcache.tags.age_task_id_blocks_1024::1          224                       # Occupied blocks per task id
system.cpu.dcache.tags.age_task_id_blocks_1024::2          133                       # Occupied blocks per task id
system.cpu.dcache.tags.age_task_id_blocks_1024::3            1                       # Occupied blocks per task id
system.cpu.dcache.tags.occ_task_id_percent::1024            1                       # Percentage of cache occupancy per task id
system.cpu.dcache.tags.tag_accesses         104860486                       # Number of tag accesses
system.cpu.dcache.tags.data_accesses        104860486                       # Number of data accesses
system.cpu.itb.walker.pwrStateResidencyTicks::UNDEFINED  87405406500                       # Cumulative time (in ticks) in various power states
system.cpu.itb.stage2_mmu.stage2_tlb.walker.pwrStateResidencyTicks::UNDEFINED  87405406500                       # Cumulative time (in ticks) in various power states

---------- End Simulation Statistics   ----------
