
---------- Begin Simulation Statistics ----------
final_tick                                81325274500                       # Number of ticks from beginning of simulation (restored from checkpoints and never reset)
host_inst_rate                                 247202                       # Simulator instruction rate (inst/s)
host_mem_usage                                 687924                       # Number of bytes of host memory used
host_op_rate                                   247687                       # Simulator op (including micro ops) rate (op/s)
host_seconds                                   404.53                       # Real time elapsed on the host
host_tick_rate                              201037271                       # Simulator tick rate (ticks/s)
sim_freq                                 1000000000000                       # Frequency of simulated ticks
sim_insts                                   100000001                       # Number of instructions simulated
sim_ops                                     100196363                       # Number of ops (including micro ops) simulated
sim_seconds                                  0.081325                       # Number of seconds simulated
sim_ticks                                 81325274500                       # Number of ticks simulated
system.cpu.branchPred.BTBCorrect                    0                       # Number of correct BTB predictions (this stat may not work properly.
system.cpu.branchPred.BTBHitPct             99.616953                       # BTB Hit Percentage
system.cpu.branchPred.BTBHits                 2095602                       # Number of BTB hits
system.cpu.branchPred.BTBLookups              2103660                       # Number of BTB lookups
system.cpu.branchPred.RASInCorrect                  5                       # Number of incorrect RAS predictions.
system.cpu.branchPred.condIncorrect             81389                       # Number of conditional branches incorrect
system.cpu.branchPred.condPredicted           3728194                       # Number of conditional branches predicted
system.cpu.branchPred.indirectHits                292                       # Number of indirect target hits.
system.cpu.branchPred.indirectLookups             998                       # Number of indirect predictor lookups.
system.cpu.branchPred.indirectMisses              706                       # Number of indirect misses.
system.cpu.branchPred.lookups                 4478297                       # Number of BP lookups
system.cpu.branchPred.usedRAS                   65354                       # Number of times the RAS was used to get a target.
system.cpu.branchPredindirectMispredicted          168                       # Number of mispredicted indirect branches.
system.cpu.committedInsts                   100000001                       # Number of instructions committed
system.cpu.committedOps                     100196363                       # Number of ops (including micro ops) committed
system.cpu.cpi                               1.626505                       # CPI: cycles per instruction
system.cpu.discardedOps                        190743                       # Number of ops (including micro ops) which were discarded before commit
system.cpu.dtb.accesses                             0                       # DTB accesses
system.cpu.dtb.align_faults                         0                       # Number of TLB faults due to alignment restrictions
system.cpu.dtb.domain_faults                        0                       # Number of TLB faults due to domain restrictions
system.cpu.dtb.flush_entries                        0                       # Number of entries that have been flushed from TLB
system.cpu.dtb.flush_tlb                            0                       # Number of times complete TLB was flushed
system.cpu.dtb.flush_tlb_asid                       0                       # Number of times TLB was flushed by ASID
system.cpu.dtb.flush_tlb_mva                        0                       # Number of times TLB was flushed by MVA
system.cpu.dtb.flush_tlb_mva_asid                   0                       # Number of times TLB was flushed by MVA & ASID
system.cpu.dtb.hits                                 0                       # DTB hits
system.cpu.dtb.inst_accesses                        0                       # ITB inst accesses
system.cpu.dtb.inst_hits                            0                       # ITB inst hits
system.cpu.dtb.inst_misses                          0                       # ITB inst misses
system.cpu.dtb.misses                               0                       # DTB misses
system.cpu.dtb.perms_faults                         0                       # Number of TLB faults due to permissions restrictions
system.cpu.dtb.prefetch_faults                      0                       # Number of TLB faults due to prefetch
system.cpu.dtb.read_accesses                        0                       # DTB read accesses
system.cpu.dtb.read_hits                            0                       # DTB read hits
system.cpu.dtb.read_misses                          0                       # DTB read misses
system.cpu.dtb.stage2_mmu.stage2_tlb.accesses            0                       # DTB accesses
system.cpu.dtb.stage2_mmu.stage2_tlb.align_faults            0                       # Number of TLB faults due to alignment restrictions
system.cpu.dtb.stage2_mmu.stage2_tlb.domain_faults            0                       # Number of TLB faults due to domain restrictions
system.cpu.dtb.stage2_mmu.stage2_tlb.flush_entries            0                       # Number of entries that have been flushed from TLB
system.cpu.dtb.stage2_mmu.stage2_tlb.flush_tlb            0                       # Number of times complete TLB was flushed
system.cpu.dtb.stage2_mmu.stage2_tlb.flush_tlb_asid            0                       # Number of times TLB was flushed by ASID
system.cpu.dtb.stage2_mmu.stage2_tlb.flush_tlb_mva            0                       # Number of times TLB was flushed by MVA
system.cpu.dtb.stage2_mmu.stage2_tlb.flush_tlb_mva_asid            0                       # Number of times TLB was flushed by MVA & ASID
system.cpu.dtb.stage2_mmu.stage2_tlb.hits            0                       # DTB hits
system.cpu.dtb.stage2_mmu.stage2_tlb.inst_accesses            0                       # ITB inst accesses
system.cpu.dtb.stage2_mmu.stage2_tlb.inst_hits            0                       # ITB inst hits
system.cpu.dtb.stage2_mmu.stage2_tlb.inst_misses            0                       # ITB inst misses
system.cpu.dtb.stage2_mmu.stage2_tlb.misses            0                       # DTB misses
system.cpu.dtb.stage2_mmu.stage2_tlb.perms_faults            0                       # Number of TLB faults due to permissions restrictions
system.cpu.dtb.stage2_mmu.stage2_tlb.prefetch_faults            0                       # Number of TLB faults due to prefetch
system.cpu.dtb.stage2_mmu.stage2_tlb.read_accesses            0                       # DTB read accesses
system.cpu.dtb.stage2_mmu.stage2_tlb.read_hits            0                       # DTB read hits
system.cpu.dtb.stage2_mmu.stage2_tlb.read_misses            0                       # DTB read misses
system.cpu.dtb.stage2_mmu.stage2_tlb.walker.walkRequestOrigin_Requested::Data            0                       # Table walker requests started/completed, data/inst
system.cpu.dtb.stage2_mmu.stage2_tlb.walker.walkRequestOrigin_Requested::Inst            0                       # Table walker requests started/completed, data/inst
system.cpu.dtb.stage2_mmu.stage2_tlb.walker.walkRequestOrigin_Requested::total            0                       # Table walker requests started/completed, data/inst
system.cpu.dtb.stage2_mmu.stage2_tlb.walker.walkRequestOrigin_Completed::Data            0                       # Table walker requests started/completed, data/inst
system.cpu.dtb.stage2_mmu.stage2_tlb.walker.walkRequestOrigin_Completed::Inst            0                       # Table walker requests started/completed, data/inst
system.cpu.dtb.stage2_mmu.stage2_tlb.walker.walkRequestOrigin_Completed::total            0                       # Table walker requests started/completed, data/inst
system.cpu.dtb.stage2_mmu.stage2_tlb.walker.walkRequestOrigin::total            0                       # Table walker requests started/completed, data/inst
system.cpu.dtb.stage2_mmu.stage2_tlb.walker.walks            0                       # Table walker walks requested
system.cpu.dtb.stage2_mmu.stage2_tlb.write_accesses            0                       # DTB write accesses
system.cpu.dtb.stage2_mmu.stage2_tlb.write_hits            0                       # DTB write hits
system.cpu.dtb.stage2_mmu.stage2_tlb.write_misses            0                       # DTB write misses
system.cpu.dtb.walker.walkRequestOrigin_Requested::Data            0                       # Table walker requests started/completed, data/inst
system.cpu.dtb.walker.walkRequestOrigin_Requested::Inst            0                       # Table walker requests started/completed, data/inst
system.cpu.dtb.walker.walkRequestOrigin_Requested::total            0                       # Table walker requests started/completed, data/inst
system.cpu.dtb.walker.walkRequestOrigin_Completed::Data            0                       # Table walker requests started/completed, data/inst
system.cpu.dtb.walker.walkRequestOrigin_Completed::Inst            0                       # Table walker requests started/completed, data/inst
system.cpu.dtb.walker.walkRequestOrigin_Completed::total            0                       # Table walker requests started/completed, data/inst
system.cpu.dtb.walker.walkRequestOrigin::total            0                       # Table walker requests started/completed, data/inst
system.cpu.dtb.walker.walks                         0                       # Table walker walks requested
system.cpu.dtb.write_accesses                       0                       # DTB write accesses
system.cpu.dtb.write_hits                           0                       # DTB write hits
system.cpu.dtb.write_misses                         0                       # DTB write misses
system.cpu.fetch2.amo_instructions                  0                       # Number of memory atomic instructions successfully decoded
system.cpu.fetch2.fp_instructions                   0                       # Number of floating point instructions successfully decoded
system.cpu.fetch2.int_instructions           42610495                       # Number of integer instructions successfully decoded
system.cpu.fetch2.load_instructions          43403226                       # Number of memory load instructions successfully decoded
system.cpu.fetch2.store_instructions         11001571                       # Number of memory store instructions successfully decoded
system.cpu.fetch2.vec_instructions                  0                       # Number of SIMD instructions successfully decoded
system.cpu.idleCycles                        30398764                       # Total number of cycles that the object has spent stopped
system.cpu.ipc                               0.614815                       # IPC: instructions per cycle
system.cpu.itb.accesses                             0                       # DTB accesses
system.cpu.itb.align_faults                         0                       # Number of TLB faults due to alignment restrictions
system.cpu.itb.domain_faults                        0                       # Number of TLB faults due to domain restrictions
system.cpu.itb.flush_entries                        0                       # Number of entries that have been flushed from TLB
system.cpu.itb.flush_tlb                            0                       # Number of times complete TLB was flushed
system.cpu.itb.flush_tlb_asid                       0                       # Number of times TLB was flushed by ASID
system.cpu.itb.flush_tlb_mva                        0                       # Number of times TLB was flushed by MVA
system.cpu.itb.flush_tlb_mva_asid                   0                       # Number of times TLB was flushed by MVA & ASID
system.cpu.itb.hits                                 0                       # DTB hits
system.cpu.itb.inst_accesses                        0                       # ITB inst accesses
system.cpu.itb.inst_hits                            0                       # ITB inst hits
system.cpu.itb.inst_misses                          0                       # ITB inst misses
system.cpu.itb.misses                               0                       # DTB misses
system.cpu.itb.perms_faults                         0                       # Number of TLB faults due to permissions restrictions
system.cpu.itb.prefetch_faults                      0                       # Number of TLB faults due to prefetch
system.cpu.itb.read_accesses                        0                       # DTB read accesses
system.cpu.itb.read_hits                            0                       # DTB read hits
system.cpu.itb.read_misses                          0                       # DTB read misses
system.cpu.itb.stage2_mmu.stage2_tlb.accesses            0                       # DTB accesses
system.cpu.itb.stage2_mmu.stage2_tlb.align_faults            0                       # Number of TLB faults due to alignment restrictions
system.cpu.itb.stage2_mmu.stage2_tlb.domain_faults            0                       # Number of TLB faults due to domain restrictions
system.cpu.itb.stage2_mmu.stage2_tlb.flush_entries            0                       # Number of entries that have been flushed from TLB
system.cpu.itb.stage2_mmu.stage2_tlb.flush_tlb            0                       # Number of times complete TLB was flushed
system.cpu.itb.stage2_mmu.stage2_tlb.flush_tlb_asid            0                       # Number of times TLB was flushed by ASID
system.cpu.itb.stage2_mmu.stage2_tlb.flush_tlb_mva            0                       # Number of times TLB was flushed by MVA
system.cpu.itb.stage2_mmu.stage2_tlb.flush_tlb_mva_asid            0                       # Number of times TLB was flushed by MVA & ASID
system.cpu.itb.stage2_mmu.stage2_tlb.hits            0                       # DTB hits
system.cpu.itb.stage2_mmu.stage2_tlb.inst_accesses            0                       # ITB inst accesses
system.cpu.itb.stage2_mmu.stage2_tlb.inst_hits            0                       # ITB inst hits
system.cpu.itb.stage2_mmu.stage2_tlb.inst_misses            0                       # ITB inst misses
system.cpu.itb.stage2_mmu.stage2_tlb.misses            0                       # DTB misses
system.cpu.itb.stage2_mmu.stage2_tlb.perms_faults            0                       # Number of TLB faults due to permissions restrictions
system.cpu.itb.stage2_mmu.stage2_tlb.prefetch_faults            0                       # Number of TLB faults due to prefetch
system.cpu.itb.stage2_mmu.stage2_tlb.read_accesses            0                       # DTB read accesses
system.cpu.itb.stage2_mmu.stage2_tlb.read_hits            0                       # DTB read hits
system.cpu.itb.stage2_mmu.stage2_tlb.read_misses            0                       # DTB read misses
system.cpu.itb.stage2_mmu.stage2_tlb.walker.walkRequestOrigin_Requested::Data            0                       # Table walker requests started/completed, data/inst
system.cpu.itb.stage2_mmu.stage2_tlb.walker.walkRequestOrigin_Requested::Inst            0                       # Table walker requests started/completed, data/inst
system.cpu.itb.stage2_mmu.stage2_tlb.walker.walkRequestOrigin_Requested::total            0                       # Table walker requests started/completed, data/inst
system.cpu.itb.stage2_mmu.stage2_tlb.walker.walkRequestOrigin_Completed::Data            0                       # Table walker requests started/completed, data/inst
system.cpu.itb.stage2_mmu.stage2_tlb.walker.walkRequestOrigin_Completed::Inst            0                       # Table walker requests started/completed, data/inst
system.cpu.itb.stage2_mmu.stage2_tlb.walker.walkRequestOrigin_Completed::total            0                       # Table walker requests started/completed, data/inst
system.cpu.itb.stage2_mmu.stage2_tlb.walker.walkRequestOrigin::total            0                       # Table walker requests started/completed, data/inst
system.cpu.itb.stage2_mmu.stage2_tlb.walker.walks            0                       # Table walker walks requested
system.cpu.itb.stage2_mmu.stage2_tlb.write_accesses            0                       # DTB write accesses
system.cpu.itb.stage2_mmu.stage2_tlb.write_hits            0                       # DTB write hits
system.cpu.itb.stage2_mmu.stage2_tlb.write_misses            0                       # DTB write misses
system.cpu.itb.walker.walkRequestOrigin_Requested::Data            0                       # Table walker requests started/completed, data/inst
system.cpu.itb.walker.walkRequestOrigin_Requested::Inst            0                       # Table walker requests started/completed, data/inst
system.cpu.itb.walker.walkRequestOrigin_Requested::total            0                       # Table walker requests started/completed, data/inst
system.cpu.itb.walker.walkRequestOrigin_Completed::Data            0                       # Table walker requests started/completed, data/inst
system.cpu.itb.walker.walkRequestOrigin_Completed::Inst            0                       # Table walker requests started/completed, data/inst
system.cpu.itb.walker.walkRequestOrigin_Completed::total            0                       # Table walker requests started/completed, data/inst
system.cpu.itb.walker.walkRequestOrigin::total            0                       # Table walker requests started/completed, data/inst
system.cpu.itb.walker.walks                         0                       # Table walker walks requested
system.cpu.itb.write_accesses                       0                       # DTB write accesses
system.cpu.itb.write_hits                           0                       # DTB write hits
system.cpu.itb.write_misses                         0                       # DTB write misses
system.cpu.numCycles                        162650549                       # number of cpu cycles simulated
system.cpu.numFetchSuspends                         0                       # Number of times Execute suspended instruction fetching
system.cpu.numWorkItemsCompleted                    0                       # number of work items this cpu completed
system.cpu.numWorkItemsStarted                      0                       # number of work items this cpu started
system.cpu.op_class_0::No_OpClass                   0      0.00%      0.00% # Class of committed instruction
system.cpu.op_class_0::IntAlu                46531400     46.44%     46.44% # Class of committed instruction
system.cpu.op_class_0::IntMult                  20720      0.02%     46.46% # Class of committed instruction
system.cpu.op_class_0::IntDiv                       0      0.00%     46.46% # Class of committed instruction
system.cpu.op_class_0::FloatAdd                     0      0.00%     46.46% # Class of committed instruction
system.cpu.op_class_0::FloatCmp                     0      0.00%     46.46% # Class of committed instruction
system.cpu.op_class_0::FloatCvt                     0      0.00%     46.46% # Class of committed instruction
system.cpu.op_class_0::FloatMult                    0      0.00%     46.46% # Class of committed instruction
system.cpu.op_class_0::FloatMultAcc                 0      0.00%     46.46% # Class of committed instruction
system.cpu.op_class_0::FloatDiv                     0      0.00%     46.46% # Class of committed instruction
system.cpu.op_class_0::FloatMisc                    0      0.00%     46.46% # Class of committed instruction
system.cpu.op_class_0::FloatSqrt                    0      0.00%     46.46% # Class of committed instruction
system.cpu.op_class_0::SimdAdd                      0      0.00%     46.46% # Class of committed instruction
system.cpu.op_class_0::SimdAddAcc                   0      0.00%     46.46% # Class of committed instruction
system.cpu.op_class_0::SimdAlu                      0      0.00%     46.46% # Class of committed instruction
system.cpu.op_class_0::SimdCmp                      0      0.00%     46.46% # Class of committed instruction
system.cpu.op_class_0::SimdCvt                      0      0.00%     46.46% # Class of committed instruction
system.cpu.op_class_0::SimdMisc                     0      0.00%     46.46% # Class of committed instruction
system.cpu.op_class_0::SimdMult                     0      0.00%     46.46% # Class of committed instruction
system.cpu.op_class_0::SimdMultAcc                  0      0.00%     46.46% # Class of committed instruction
system.cpu.op_class_0::SimdShift                    0      0.00%     46.46% # Class of committed instruction
system.cpu.op_class_0::SimdShiftAcc                 0      0.00%     46.46% # Class of committed instruction
system.cpu.op_class_0::SimdDiv                      0      0.00%     46.46% # Class of committed instruction
system.cpu.op_class_0::SimdSqrt                     0      0.00%     46.46% # Class of committed instruction
system.cpu.op_class_0::SimdFloatAdd                 0      0.00%     46.46% # Class of committed instruction
system.cpu.op_class_0::SimdFloatAlu                 0      0.00%     46.46% # Class of committed instruction
system.cpu.op_class_0::SimdFloatCmp                 0      0.00%     46.46% # Class of committed instruction
system.cpu.op_class_0::SimdFloatCvt                 0      0.00%     46.46% # Class of committed instruction
system.cpu.op_class_0::SimdFloatDiv                 0      0.00%     46.46% # Class of committed instruction
system.cpu.op_class_0::SimdFloatMisc               18      0.00%     46.46% # Class of committed instruction
system.cpu.op_class_0::SimdFloatMult                0      0.00%     46.46% # Class of committed instruction
system.cpu.op_class_0::SimdFloatMultAcc             0      0.00%     46.46% # Class of committed instruction
system.cpu.op_class_0::SimdFloatSqrt                0      0.00%     46.46% # Class of committed instruction
system.cpu.op_class_0::SimdReduceAdd                0      0.00%     46.46% # Class of committed instruction
system.cpu.op_class_0::SimdReduceAlu                0      0.00%     46.46% # Class of committed instruction
system.cpu.op_class_0::SimdReduceCmp                0      0.00%     46.46% # Class of committed instruction
system.cpu.op_class_0::SimdFloatReduceAdd            0      0.00%     46.46% # Class of committed instruction
system.cpu.op_class_0::SimdFloatReduceCmp            0      0.00%     46.46% # Class of committed instruction
system.cpu.op_class_0::SimdAes                      0      0.00%     46.46% # Class of committed instruction
system.cpu.op_class_0::SimdAesMix                   0      0.00%     46.46% # Class of committed instruction
system.cpu.op_class_0::SimdSha1Hash                 0      0.00%     46.46% # Class of committed instruction
system.cpu.op_class_0::SimdSha1Hash2                0      0.00%     46.46% # Class of committed instruction
system.cpu.op_class_0::SimdSha256Hash               0      0.00%     46.46% # Class of committed instruction
system.cpu.op_class_0::SimdSha256Hash2              0      0.00%     46.46% # Class of committed instruction
system.cpu.op_class_0::SimdShaSigma2                0      0.00%     46.46% # Class of committed instruction
system.cpu.op_class_0::SimdShaSigma3                0      0.00%     46.46% # Class of committed instruction
system.cpu.op_class_0::SimdPredAlu                  0      0.00%     46.46% # Class of committed instruction
system.cpu.op_class_0::MemRead               42693601     42.61%     89.07% # Class of committed instruction
system.cpu.op_class_0::MemWrite              10950624     10.93%    100.00% # Class of committed instruction
system.cpu.op_class_0::FloatMemRead                 0      0.00%    100.00% # Class of committed instruction
system.cpu.op_class_0::FloatMemWrite                0      0.00%    100.00% # Class of committed instruction
system.cpu.op_class_0::IprAccess                    0      0.00%    100.00% # Class of committed instruction
system.cpu.op_class_0::InstPrefetch                 0      0.00%    100.00% # Class of committed instruction
system.cpu.op_class_0::total                100196363                       # Class of committed instruction
system.cpu.tickCycles                       132251785                       # Number of cycles that the object actually ticked
system.cpu.workload.numSyscalls                    84                       # Number of system calls
system.membus.snoop_filter.hit_multi_requests            0                       # Number of requests hitting in the snoop filter with multiple (>1) holders of the requested data.
system.membus.snoop_filter.hit_multi_snoops            0                       # Number of snoops hitting in the snoop filter with multiple (>1) holders of the requested data.
system.membus.snoop_filter.hit_single_requests       106630                       # Number of requests hitting in the snoop filter with a single holder of the requested data.
system.membus.snoop_filter.hit_single_snoops            0                       # Number of snoops hitting in the snoop filter with a single holder of the requested data.
system.membus.snoop_filter.tot_requests        229826                       # Total number of requests made to the snoop filter.
system.membus.snoop_filter.tot_snoops               0                       # Total number of snoops made to the snoop filter.
system.tol2bus.snoop_filter.hit_multi_requests           85                       # Number of requests hitting in the snoop filter with multiple (>1) holders of the requested data.
system.tol2bus.snoop_filter.hit_multi_snoops            0                       # Number of snoops hitting in the snoop filter with multiple (>1) holders of the requested data.
system.tol2bus.snoop_filter.hit_single_requests       472334                       # Number of requests hitting in the snoop filter with a single holder of the requested data.
system.tol2bus.snoop_filter.hit_single_snoops          301                       # Number of snoops hitting in the snoop filter with a single holder of the requested data.
system.tol2bus.snoop_filter.tot_requests       945927                       # Total number of requests made to the snoop filter.
system.tol2bus.snoop_filter.tot_snoops            301                       # Total number of snoops made to the snoop filter.
system.membus.pwrStateResidencyTicks::UNDEFINED  81325274500                       # Cumulative time (in ticks) in various power states
system.membus.trans_dist::ReadResp              38185                       # Transaction distribution
system.membus.trans_dist::WritebackDirty        72761                       # Transaction distribution
system.membus.trans_dist::CleanEvict            33861                       # Transaction distribution
system.membus.trans_dist::ReadExReq             85019                       # Transaction distribution
system.membus.trans_dist::ReadExResp            85018                       # Transaction distribution
system.membus.trans_dist::ReadSharedReq         38185                       # Transaction distribution
system.membus.pkt_count_system.l2.mem_side::system.mem_ctrls.port       353029                       # Packet count per connected master and slave (bytes)
system.membus.pkt_count::total                 353029                       # Packet count per connected master and slave (bytes)
system.membus.pkt_size_system.l2.mem_side::system.mem_ctrls.port     25083392                       # Cumulative packet size per connected master and slave (bytes)
system.membus.pkt_size::total                25083392                       # Cumulative packet size per connected master and slave (bytes)
system.membus.snoops                                0                       # Total snoops (count)
system.membus.snoopTraffic                          0                       # Total snoop traffic (bytes)
system.membus.snoop_fanout::samples            123204                       # Request fanout histogram
system.membus.snoop_fanout::mean                    0                       # Request fanout histogram
system.membus.snoop_fanout::stdev                   0                       # Request fanout histogram
system.membus.snoop_fanout::underflows              0      0.00%      0.00% # Request fanout histogram
system.membus.snoop_fanout::0                  123204    100.00%    100.00% # Request fanout histogram
system.membus.snoop_fanout::1                       0      0.00%    100.00% # Request fanout histogram
system.membus.snoop_fanout::overflows               0      0.00%    100.00% # Request fanout histogram
system.membus.snoop_fanout::min_value               0                       # Request fanout histogram
system.membus.snoop_fanout::max_value               0                       # Request fanout histogram
system.membus.snoop_fanout::total              123204                       # Request fanout histogram
system.membus.respLayer1.occupancy         1151678500                       # Layer occupancy (ticks)
system.membus.respLayer1.utilization              1.4                       # Layer utilization (%)
system.membus.reqLayer0.occupancy           840551000                       # Layer occupancy (ticks)
system.membus.reqLayer0.utilization               1.0                       # Layer utilization (%)
system.tol2bus.pwrStateResidencyTicks::UNDEFINED  81325274500                       # Cumulative time (in ticks) in various power states
system.tol2bus.trans_dist::ReadResp            255681                       # Transaction distribution
system.tol2bus.trans_dist::WritebackDirty       496434                       # Transaction distribution
system.tol2bus.trans_dist::WritebackClean          302                       # Transaction distribution
system.tol2bus.trans_dist::CleanEvict           82518                       # Transaction distribution
system.tol2bus.trans_dist::ReadExReq           217914                       # Transaction distribution
system.tol2bus.trans_dist::ReadExResp          217913                       # Transaction distribution
system.tol2bus.trans_dist::ReadCleanReq           540                       # Transaction distribution
system.tol2bus.trans_dist::ReadSharedReq       255141                       # Transaction distribution
system.tol2bus.pkt_count_system.cpu.icache.mem_side::system.l2.cpu_side         1382                       # Packet count per connected master and slave (bytes)
system.tol2bus.pkt_count_system.cpu.dcache.mem_side::system.l2.cpu_side      1418139                       # Packet count per connected master and slave (bytes)
system.tol2bus.pkt_count::total               1419521                       # Packet count per connected master and slave (bytes)
system.tol2bus.pkt_size_system.cpu.icache.mem_side::system.l2.cpu_side       107776                       # Cumulative packet size per connected master and slave (bytes)
system.tol2bus.pkt_size_system.cpu.dcache.mem_side::system.l2.cpu_side    114781056                       # Cumulative packet size per connected master and slave (bytes)
system.tol2bus.pkt_size::total              114888832                       # Cumulative packet size per connected master and slave (bytes)
system.tol2bus.snoops                          106922                       # Total snoops (count)
system.tol2bus.snoopTraffic                   9313408                       # Total snoop traffic (bytes)
system.tol2bus.snoop_fanout::samples           580517                       # Request fanout histogram
system.tol2bus.snoop_fanout::mean            0.000668                       # Request fanout histogram
system.tol2bus.snoop_fanout::stdev           0.025844                       # Request fanout histogram
system.tol2bus.snoop_fanout::underflows             0      0.00%      0.00% # Request fanout histogram
system.tol2bus.snoop_fanout::0                 580129     99.93%     99.93% # Request fanout histogram
system.tol2bus.snoop_fanout::1                    388      0.07%    100.00% # Request fanout histogram
system.tol2bus.snoop_fanout::2                      0      0.00%    100.00% # Request fanout histogram
system.tol2bus.snoop_fanout::overflows              0      0.00%    100.00% # Request fanout histogram
system.tol2bus.snoop_fanout::min_value              0                       # Request fanout histogram
system.tol2bus.snoop_fanout::max_value              1                       # Request fanout histogram
system.tol2bus.snoop_fanout::total             580517                       # Request fanout histogram
system.tol2bus.reqLayer0.occupancy         1320913500                       # Layer occupancy (ticks)
system.tol2bus.reqLayer0.utilization              1.6                       # Layer utilization (%)
system.tol2bus.respLayer1.occupancy        1182637495                       # Layer occupancy (ticks)
system.tol2bus.respLayer1.utilization             1.5                       # Layer utilization (%)
system.tol2bus.respLayer0.occupancy           1350000                       # Layer occupancy (ticks)
system.tol2bus.respLayer0.utilization             0.0                       # Layer utilization (%)
system.voltage_domain.voltage                       1                       # Voltage in Volts
system.clk_domain.clock                          1000                       # Clock period in ticks
system.l2.pwrStateResidencyTicks::UNDEFINED  81325274500                       # Cumulative time (in ticks) in various power states
system.l2.demand_hits::.cpu.inst                  124                       # number of demand (read+write) hits
system.l2.demand_hits::.cpu.data               350262                       # number of demand (read+write) hits
system.l2.demand_hits::total                   350386                       # number of demand (read+write) hits
system.l2.overall_hits::.cpu.inst                 124                       # number of overall hits
system.l2.overall_hits::.cpu.data              350262                       # number of overall hits
system.l2.overall_hits::total                  350386                       # number of overall hits
system.l2.demand_misses::.cpu.inst                416                       # number of demand (read+write) misses
system.l2.demand_misses::.cpu.data             122793                       # number of demand (read+write) misses
system.l2.demand_misses::total                 123209                       # number of demand (read+write) misses
system.l2.overall_misses::.cpu.inst               416                       # number of overall misses
system.l2.overall_misses::.cpu.data            122793                       # number of overall misses
system.l2.overall_misses::total                123209                       # number of overall misses
system.l2.demand_miss_latency::.cpu.inst     35965500                       # number of demand (read+write) miss cycles
system.l2.demand_miss_latency::.cpu.data  11235945500                       # number of demand (read+write) miss cycles
system.l2.demand_miss_latency::total      11271911000                       # number of demand (read+write) miss cycles
system.l2.overall_miss_latency::.cpu.inst     35965500                       # number of overall miss cycles
system.l2.overall_miss_latency::.cpu.data  11235945500                       # number of overall miss cycles
system.l2.overall_miss_latency::total     11271911000                       # number of overall miss cycles
system.l2.demand_accesses::.cpu.inst              540                       # number of demand (read+write) accesses
system.l2.demand_accesses::.cpu.data           473055                       # number of demand (read+write) accesses
system.l2.demand_accesses::total               473595                       # number of demand (read+write) accesses
system.l2.overall_accesses::.cpu.inst             540                       # number of overall (read+write) accesses
system.l2.overall_accesses::.cpu.data          473055                       # number of overall (read+write) accesses
system.l2.overall_accesses::total              473595                       # number of overall (read+write) accesses
system.l2.demand_miss_rate::.cpu.inst        0.770370                       # miss rate for demand accesses
system.l2.demand_miss_rate::.cpu.data        0.259574                       # miss rate for demand accesses
system.l2.demand_miss_rate::total            0.260157                       # miss rate for demand accesses
system.l2.overall_miss_rate::.cpu.inst       0.770370                       # miss rate for overall accesses
system.l2.overall_miss_rate::.cpu.data       0.259574                       # miss rate for overall accesses
system.l2.overall_miss_rate::total           0.260157                       # miss rate for overall accesses
system.l2.demand_avg_miss_latency::.cpu.inst 86455.528846                       # average overall miss latency
system.l2.demand_avg_miss_latency::.cpu.data 91503.143502                       # average overall miss latency
system.l2.demand_avg_miss_latency::total 91486.100853                       # average overall miss latency
system.l2.overall_avg_miss_latency::.cpu.inst 86455.528846                       # average overall miss latency
system.l2.overall_avg_miss_latency::.cpu.data 91503.143502                       # average overall miss latency
system.l2.overall_avg_miss_latency::total 91486.100853                       # average overall miss latency
system.l2.blocked_cycles::no_mshrs                  0                       # number of cycles access was blocked
system.l2.blocked_cycles::no_targets                0                       # number of cycles access was blocked
system.l2.blocked::no_mshrs                         0                       # number of cycles access was blocked
system.l2.blocked::no_targets                       0                       # number of cycles access was blocked
system.l2.avg_blocked_cycles::no_mshrs            nan                       # average number of cycles each access was blocked
system.l2.avg_blocked_cycles::no_targets          nan                       # average number of cycles each access was blocked
system.l2.writebacks::.writebacks               72761                       # number of writebacks
system.l2.writebacks::total                     72761                       # number of writebacks
system.l2.demand_mshr_hits::.cpu.data               5                       # number of demand (read+write) MSHR hits
system.l2.demand_mshr_hits::total                   5                       # number of demand (read+write) MSHR hits
system.l2.overall_mshr_hits::.cpu.data              5                       # number of overall MSHR hits
system.l2.overall_mshr_hits::total                  5                       # number of overall MSHR hits
system.l2.demand_mshr_misses::.cpu.inst           416                       # number of demand (read+write) MSHR misses
system.l2.demand_mshr_misses::.cpu.data        122788                       # number of demand (read+write) MSHR misses
system.l2.demand_mshr_misses::total            123204                       # number of demand (read+write) MSHR misses
system.l2.overall_mshr_misses::.cpu.inst          416                       # number of overall MSHR misses
system.l2.overall_mshr_misses::.cpu.data       122788                       # number of overall MSHR misses
system.l2.overall_mshr_misses::total           123204                       # number of overall MSHR misses
system.l2.demand_mshr_miss_latency::.cpu.inst     31805500                       # number of demand (read+write) MSHR miss cycles
system.l2.demand_mshr_miss_latency::.cpu.data  10007712000                       # number of demand (read+write) MSHR miss cycles
system.l2.demand_mshr_miss_latency::total  10039517500                       # number of demand (read+write) MSHR miss cycles
system.l2.overall_mshr_miss_latency::.cpu.inst     31805500                       # number of overall MSHR miss cycles
system.l2.overall_mshr_miss_latency::.cpu.data  10007712000                       # number of overall MSHR miss cycles
system.l2.overall_mshr_miss_latency::total  10039517500                       # number of overall MSHR miss cycles
system.l2.demand_mshr_miss_rate::.cpu.inst     0.770370                       # mshr miss rate for demand accesses
system.l2.demand_mshr_miss_rate::.cpu.data     0.259564                       # mshr miss rate for demand accesses
system.l2.demand_mshr_miss_rate::total       0.260146                       # mshr miss rate for demand accesses
system.l2.overall_mshr_miss_rate::.cpu.inst     0.770370                       # mshr miss rate for overall accesses
system.l2.overall_mshr_miss_rate::.cpu.data     0.259564                       # mshr miss rate for overall accesses
system.l2.overall_mshr_miss_rate::total      0.260146                       # mshr miss rate for overall accesses
system.l2.demand_avg_mshr_miss_latency::.cpu.inst 76455.528846                       # average overall mshr miss latency
system.l2.demand_avg_mshr_miss_latency::.cpu.data 81503.990618                       # average overall mshr miss latency
system.l2.demand_avg_mshr_miss_latency::total 81486.944417                       # average overall mshr miss latency
system.l2.overall_avg_mshr_miss_latency::.cpu.inst 76455.528846                       # average overall mshr miss latency
system.l2.overall_avg_mshr_miss_latency::.cpu.data 81503.990618                       # average overall mshr miss latency
system.l2.overall_avg_mshr_miss_latency::total 81486.944417                       # average overall mshr miss latency
system.l2.replacements                         106922                       # number of replacements
system.l2.WritebackDirty_hits::.writebacks       423673                       # number of WritebackDirty hits
system.l2.WritebackDirty_hits::total           423673                       # number of WritebackDirty hits
system.l2.WritebackDirty_accesses::.writebacks       423673                       # number of WritebackDirty accesses(hits+misses)
system.l2.WritebackDirty_accesses::total       423673                       # number of WritebackDirty accesses(hits+misses)
system.l2.WritebackClean_hits::.writebacks          289                       # number of WritebackClean hits
system.l2.WritebackClean_hits::total              289                       # number of WritebackClean hits
system.l2.WritebackClean_accesses::.writebacks          289                       # number of WritebackClean accesses(hits+misses)
system.l2.WritebackClean_accesses::total          289                       # number of WritebackClean accesses(hits+misses)
system.l2.CleanEvict_mshr_misses::.writebacks            1                       # number of CleanEvict MSHR misses
system.l2.CleanEvict_mshr_misses::total             1                       # number of CleanEvict MSHR misses
system.l2.CleanEvict_mshr_miss_rate::.writebacks          inf                       # mshr miss rate for CleanEvict accesses
system.l2.CleanEvict_mshr_miss_rate::total          inf                       # mshr miss rate for CleanEvict accesses
system.l2.ReadExReq_hits::.cpu.data            132895                       # number of ReadExReq hits
system.l2.ReadExReq_hits::total                132895                       # number of ReadExReq hits
system.l2.ReadExReq_misses::.cpu.data           85019                       # number of ReadExReq misses
system.l2.ReadExReq_misses::total               85019                       # number of ReadExReq misses
system.l2.ReadExReq_miss_latency::.cpu.data   7925513000                       # number of ReadExReq miss cycles
system.l2.ReadExReq_miss_latency::total    7925513000                       # number of ReadExReq miss cycles
system.l2.ReadExReq_accesses::.cpu.data        217914                       # number of ReadExReq accesses(hits+misses)
system.l2.ReadExReq_accesses::total            217914                       # number of ReadExReq accesses(hits+misses)
system.l2.ReadExReq_miss_rate::.cpu.data     0.390149                       # miss rate for ReadExReq accesses
system.l2.ReadExReq_miss_rate::total         0.390149                       # miss rate for ReadExReq accesses
system.l2.ReadExReq_avg_miss_latency::.cpu.data 93220.491890                       # average ReadExReq miss latency
system.l2.ReadExReq_avg_miss_latency::total 93220.491890                       # average ReadExReq miss latency
system.l2.ReadExReq_mshr_misses::.cpu.data        85019                       # number of ReadExReq MSHR misses
system.l2.ReadExReq_mshr_misses::total          85019                       # number of ReadExReq MSHR misses
system.l2.ReadExReq_mshr_miss_latency::.cpu.data   7075333000                       # number of ReadExReq MSHR miss cycles
system.l2.ReadExReq_mshr_miss_latency::total   7075333000                       # number of ReadExReq MSHR miss cycles
system.l2.ReadExReq_mshr_miss_rate::.cpu.data     0.390149                       # mshr miss rate for ReadExReq accesses
system.l2.ReadExReq_mshr_miss_rate::total     0.390149                       # mshr miss rate for ReadExReq accesses
system.l2.ReadExReq_avg_mshr_miss_latency::.cpu.data 83220.609511                       # average ReadExReq mshr miss latency
system.l2.ReadExReq_avg_mshr_miss_latency::total 83220.609511                       # average ReadExReq mshr miss latency
system.l2.ReadCleanReq_hits::.cpu.inst            124                       # number of ReadCleanReq hits
system.l2.ReadCleanReq_hits::total                124                       # number of ReadCleanReq hits
system.l2.ReadCleanReq_misses::.cpu.inst          416                       # number of ReadCleanReq misses
system.l2.ReadCleanReq_misses::total              416                       # number of ReadCleanReq misses
system.l2.ReadCleanReq_miss_latency::.cpu.inst     35965500                       # number of ReadCleanReq miss cycles
system.l2.ReadCleanReq_miss_latency::total     35965500                       # number of ReadCleanReq miss cycles
system.l2.ReadCleanReq_accesses::.cpu.inst          540                       # number of ReadCleanReq accesses(hits+misses)
system.l2.ReadCleanReq_accesses::total            540                       # number of ReadCleanReq accesses(hits+misses)
system.l2.ReadCleanReq_miss_rate::.cpu.inst     0.770370                       # miss rate for ReadCleanReq accesses
system.l2.ReadCleanReq_miss_rate::total      0.770370                       # miss rate for ReadCleanReq accesses
system.l2.ReadCleanReq_avg_miss_latency::.cpu.inst 86455.528846                       # average ReadCleanReq miss latency
system.l2.ReadCleanReq_avg_miss_latency::total 86455.528846                       # average ReadCleanReq miss latency
system.l2.ReadCleanReq_mshr_misses::.cpu.inst          416                       # number of ReadCleanReq MSHR misses
system.l2.ReadCleanReq_mshr_misses::total          416                       # number of ReadCleanReq MSHR misses
system.l2.ReadCleanReq_mshr_miss_latency::.cpu.inst     31805500                       # number of ReadCleanReq MSHR miss cycles
system.l2.ReadCleanReq_mshr_miss_latency::total     31805500                       # number of ReadCleanReq MSHR miss cycles
system.l2.ReadCleanReq_mshr_miss_rate::.cpu.inst     0.770370                       # mshr miss rate for ReadCleanReq accesses
system.l2.ReadCleanReq_mshr_miss_rate::total     0.770370                       # mshr miss rate for ReadCleanReq accesses
system.l2.ReadCleanReq_avg_mshr_miss_latency::.cpu.inst 76455.528846                       # average ReadCleanReq mshr miss latency
system.l2.ReadCleanReq_avg_mshr_miss_latency::total 76455.528846                       # average ReadCleanReq mshr miss latency
system.l2.ReadSharedReq_hits::.cpu.data        217367                       # number of ReadSharedReq hits
system.l2.ReadSharedReq_hits::total            217367                       # number of ReadSharedReq hits
system.l2.ReadSharedReq_misses::.cpu.data        37774                       # number of ReadSharedReq misses
system.l2.ReadSharedReq_misses::total           37774                       # number of ReadSharedReq misses
system.l2.ReadSharedReq_miss_latency::.cpu.data   3310432500                       # number of ReadSharedReq miss cycles
system.l2.ReadSharedReq_miss_latency::total   3310432500                       # number of ReadSharedReq miss cycles
system.l2.ReadSharedReq_accesses::.cpu.data       255141                       # number of ReadSharedReq accesses(hits+misses)
system.l2.ReadSharedReq_accesses::total        255141                       # number of ReadSharedReq accesses(hits+misses)
system.l2.ReadSharedReq_miss_rate::.cpu.data     0.148051                       # miss rate for ReadSharedReq accesses
system.l2.ReadSharedReq_miss_rate::total     0.148051                       # miss rate for ReadSharedReq accesses
system.l2.ReadSharedReq_avg_miss_latency::.cpu.data 87637.859374                       # average ReadSharedReq miss latency
system.l2.ReadSharedReq_avg_miss_latency::total 87637.859374                       # average ReadSharedReq miss latency
system.l2.ReadSharedReq_mshr_hits::.cpu.data            5                       # number of ReadSharedReq MSHR hits
system.l2.ReadSharedReq_mshr_hits::total            5                       # number of ReadSharedReq MSHR hits
system.l2.ReadSharedReq_mshr_misses::.cpu.data        37769                       # number of ReadSharedReq MSHR misses
system.l2.ReadSharedReq_mshr_misses::total        37769                       # number of ReadSharedReq MSHR misses
system.l2.ReadSharedReq_mshr_miss_latency::.cpu.data   2932379000                       # number of ReadSharedReq MSHR miss cycles
system.l2.ReadSharedReq_mshr_miss_latency::total   2932379000                       # number of ReadSharedReq MSHR miss cycles
system.l2.ReadSharedReq_mshr_miss_rate::.cpu.data     0.148032                       # mshr miss rate for ReadSharedReq accesses
system.l2.ReadSharedReq_mshr_miss_rate::total     0.148032                       # mshr miss rate for ReadSharedReq accesses
system.l2.ReadSharedReq_avg_mshr_miss_latency::.cpu.data 77639.836903                       # average ReadSharedReq mshr miss latency
system.l2.ReadSharedReq_avg_mshr_miss_latency::total 77639.836903                       # average ReadSharedReq mshr miss latency
system.l2.tags.pwrStateResidencyTicks::UNDEFINED  81325274500                       # Cumulative time (in ticks) in various power states
system.l2.tags.tagsinuse                 15935.902795                       # Cycle average of tags in use
system.l2.tags.total_refs                      945835                       # Total number of references to valid blocks.
system.l2.tags.sampled_refs                    123306                       # Sample count of references to valid blocks.
system.l2.tags.avg_refs                      7.670632                       # Average number of references to valid blocks.
system.l2.tags.warmup_cycle                     82000                       # Cycle when the warmup percentage was hit.
system.l2.tags.occ_blocks::.writebacks      37.848560                       # Average occupied blocks per requestor
system.l2.tags.occ_blocks::.cpu.inst        51.804078                       # Average occupied blocks per requestor
system.l2.tags.occ_blocks::.cpu.data     15846.250157                       # Average occupied blocks per requestor
system.l2.tags.occ_percent::.writebacks      0.002310                       # Average percentage of cache occupancy
system.l2.tags.occ_percent::.cpu.inst        0.003162                       # Average percentage of cache occupancy
system.l2.tags.occ_percent::.cpu.data        0.967178                       # Average percentage of cache occupancy
system.l2.tags.occ_percent::total            0.972650                       # Average percentage of cache occupancy
system.l2.tags.occ_task_id_blocks::1024         16384                       # Occupied blocks per task id
system.l2.tags.age_task_id_blocks_1024::0           44                       # Occupied blocks per task id
system.l2.tags.age_task_id_blocks_1024::1           62                       # Occupied blocks per task id
system.l2.tags.age_task_id_blocks_1024::2          654                       # Occupied blocks per task id
system.l2.tags.age_task_id_blocks_1024::3         9342                       # Occupied blocks per task id
system.l2.tags.age_task_id_blocks_1024::4         6282                       # Occupied blocks per task id
system.l2.tags.occ_task_id_percent::1024            1                       # Percentage of cache occupancy per task id
system.l2.tags.tag_accesses                  15256778                       # Number of tag accesses
system.l2.tags.data_accesses                 15256778                       # Number of data accesses
system.cpu_voltage_domain.voltage                   1                       # Voltage in Volts
system.mem_ctrls.pwrStateResidencyTicks::UNDEFINED  81325274500                       # Cumulative time (in ticks) in various power states
system.mem_ctrls.bytes_read::.cpu.inst          53248                       # Number of bytes read from this memory
system.mem_ctrls.bytes_read::.cpu.data       15716864                       # Number of bytes read from this memory
system.mem_ctrls.bytes_read::total           15770112                       # Number of bytes read from this memory
system.mem_ctrls.bytes_inst_read::.cpu.inst        53248                       # Number of instructions bytes read from this memory
system.mem_ctrls.bytes_inst_read::total         53248                       # Number of instructions bytes read from this memory
system.mem_ctrls.bytes_written::.writebacks      9313408                       # Number of bytes written to this memory
system.mem_ctrls.bytes_written::total         9313408                       # Number of bytes written to this memory
system.mem_ctrls.num_reads::.cpu.inst             416                       # Number of read requests responded to by this memory
system.mem_ctrls.num_reads::.cpu.data          122788                       # Number of read requests responded to by this memory
system.mem_ctrls.num_reads::total              123204                       # Number of read requests responded to by this memory
system.mem_ctrls.num_writes::.writebacks        72761                       # Number of write requests responded to by this memory
system.mem_ctrls.num_writes::total              72761                       # Number of write requests responded to by this memory
system.mem_ctrls.bw_read::.cpu.inst            654753                       # Total read bandwidth from this memory (bytes/s)
system.mem_ctrls.bw_read::.cpu.data         193259280                       # Total read bandwidth from this memory (bytes/s)
system.mem_ctrls.bw_read::total             193914033                       # Total read bandwidth from this memory (bytes/s)
system.mem_ctrls.bw_inst_read::.cpu.inst       654753                       # Instruction read bandwidth from this memory (bytes/s)
system.mem_ctrls.bw_inst_read::total           654753                       # Instruction read bandwidth from this memory (bytes/s)
system.mem_ctrls.bw_write::.writebacks      114520462                       # Write bandwidth from this memory (bytes/s)
system.mem_ctrls.bw_write::total            114520462                       # Write bandwidth from this memory (bytes/s)
system.mem_ctrls.bw_total::.writebacks      114520462                       # Total bandwidth to/from this memory (bytes/s)
system.mem_ctrls.bw_total::.cpu.inst           654753                       # Total bandwidth to/from this memory (bytes/s)
system.mem_ctrls.bw_total::.cpu.data        193259280                       # Total bandwidth to/from this memory (bytes/s)
system.mem_ctrls.bw_total::total            308434495                       # Total bandwidth to/from this memory (bytes/s)
system.mem_ctrls.avgPriority_.writebacks::samples    145522.00                       # Average QoS priority value for accepted requests
system.mem_ctrls.avgPriority_.cpu.inst::samples       832.00                       # Average QoS priority value for accepted requests
system.mem_ctrls.avgPriority_.cpu.data::samples    245560.00                       # Average QoS priority value for accepted requests
system.mem_ctrls.priorityMinLatency      0.000000018750                       # per QoS priority minimum request to response latency (s)
system.mem_ctrls.priorityMaxLatency      0.006143612500                       # per QoS priority maximum request to response latency (s)
system.mem_ctrls.numReadWriteTurnArounds         8782                       # Number of turnarounds from READ to WRITE
system.mem_ctrls.numWriteReadTurnArounds         8782                       # Number of turnarounds from WRITE to READ
system.mem_ctrls.numStayReadState              448283                       # Number of times bus staying in READ state
system.mem_ctrls.numStayWriteState             136861                       # Number of times bus staying in WRITE state
system.mem_ctrls.readReqs                      123204                       # Number of read requests accepted
system.mem_ctrls.writeReqs                      72761                       # Number of write requests accepted
system.mem_ctrls.readBursts                    246408                       # Number of DRAM read bursts, including those serviced by the write queue
system.mem_ctrls.writeBursts                   145522                       # Number of DRAM write bursts, including those merged in the write queue
system.mem_ctrls.servicedByWrQ                     16                       # Number of DRAM read bursts serviced by the write queue
system.mem_ctrls.mergedWrBursts                     0                       # Number of DRAM write bursts merged with an existing one
system.mem_ctrls.neitherReadNorWriteReqs            0                       # Number of requests that are neither read nor write
system.mem_ctrls.perBankRdBursts::0             15900                       # Per bank write bursts
system.mem_ctrls.perBankRdBursts::1             15742                       # Per bank write bursts
system.mem_ctrls.perBankRdBursts::2             15800                       # Per bank write bursts
system.mem_ctrls.perBankRdBursts::3             15502                       # Per bank write bursts
system.mem_ctrls.perBankRdBursts::4             15372                       # Per bank write bursts
system.mem_ctrls.perBankRdBursts::5             15168                       # Per bank write bursts
system.mem_ctrls.perBankRdBursts::6             15128                       # Per bank write bursts
system.mem_ctrls.perBankRdBursts::7             15252                       # Per bank write bursts
system.mem_ctrls.perBankRdBursts::8             15216                       # Per bank write bursts
system.mem_ctrls.perBankRdBursts::9             15144                       # Per bank write bursts
system.mem_ctrls.perBankRdBursts::10            15162                       # Per bank write bursts
system.mem_ctrls.perBankRdBursts::11            15188                       # Per bank write bursts
system.mem_ctrls.perBankRdBursts::12            15422                       # Per bank write bursts
system.mem_ctrls.perBankRdBursts::13            15410                       # Per bank write bursts
system.mem_ctrls.perBankRdBursts::14            15486                       # Per bank write bursts
system.mem_ctrls.perBankRdBursts::15            15500                       # Per bank write bursts
system.mem_ctrls.perBankWrBursts::0              9352                       # Per bank write bursts
system.mem_ctrls.perBankWrBursts::1              9334                       # Per bank write bursts
system.mem_ctrls.perBankWrBursts::2              9370                       # Per bank write bursts
system.mem_ctrls.perBankWrBursts::3              9138                       # Per bank write bursts
system.mem_ctrls.perBankWrBursts::4              9124                       # Per bank write bursts
system.mem_ctrls.perBankWrBursts::5              9074                       # Per bank write bursts
system.mem_ctrls.perBankWrBursts::6              8988                       # Per bank write bursts
system.mem_ctrls.perBankWrBursts::7              8938                       # Per bank write bursts
system.mem_ctrls.perBankWrBursts::8              8954                       # Per bank write bursts
system.mem_ctrls.perBankWrBursts::9              8916                       # Per bank write bursts
system.mem_ctrls.perBankWrBursts::10             8981                       # Per bank write bursts
system.mem_ctrls.perBankWrBursts::11             8946                       # Per bank write bursts
system.mem_ctrls.perBankWrBursts::12             9040                       # Per bank write bursts
system.mem_ctrls.perBankWrBursts::13             9064                       # Per bank write bursts
system.mem_ctrls.perBankWrBursts::14             9154                       # Per bank write bursts
system.mem_ctrls.perBankWrBursts::15             9132                       # Per bank write bursts
system.mem_ctrls.avgRdQLen                       2.07                       # Average read queue length when enqueuing
system.mem_ctrls.avgWrQLen                      24.95                       # Average write queue length when enqueuing
system.mem_ctrls.totQLat                   4704558500                       # Total ticks spent queuing
system.mem_ctrls.totBusLat                 1231960000                       # Total ticks spent in databus transfers
system.mem_ctrls.totMemAccLat              9324408500                       # Total ticks spent from burst creation until serviced by the DRAM
system.mem_ctrls.avgQLat                     19093.80                       # Average queueing delay per DRAM burst
system.mem_ctrls.avgBusLat                    5000.00                       # Average bus latency per DRAM burst
system.mem_ctrls.avgMemAccLat                37843.80                       # Average memory access latency per DRAM burst
system.mem_ctrls.numRdRetry                         0                       # Number of times read queue was full causing retry
system.mem_ctrls.numWrRetry                         0                       # Number of times write queue was full causing retry
system.mem_ctrls.readRowHits                   203315                       # Number of row buffer hits during reads
system.mem_ctrls.writeRowHits                  116125                       # Number of row buffer hits during writes
system.mem_ctrls.readRowHitRate                 82.52                       # Row buffer hit rate for reads
system.mem_ctrls.writeRowHitRate                79.80                       # Row buffer hit rate for writes
system.mem_ctrls.readPktSize::0                     0                       # Read request sizes (log2)
system.mem_ctrls.readPktSize::1                     0                       # Read request sizes (log2)
system.mem_ctrls.readPktSize::2                     0                       # Read request sizes (log2)
system.mem_ctrls.readPktSize::3                     0                       # Read request sizes (log2)
system.mem_ctrls.readPktSize::4                     0                       # Read request sizes (log2)
system.mem_ctrls.readPktSize::5                     0                       # Read request sizes (log2)
system.mem_ctrls.readPktSize::6                246408                       # Read request sizes (log2)
system.mem_ctrls.writePktSize::0                    0                       # Write request sizes (log2)
system.mem_ctrls.writePktSize::1                    0                       # Write request sizes (log2)
system.mem_ctrls.writePktSize::2                    0                       # Write request sizes (log2)
system.mem_ctrls.writePktSize::3                    0                       # Write request sizes (log2)
system.mem_ctrls.writePktSize::4                    0                       # Write request sizes (log2)
system.mem_ctrls.writePktSize::5                    0                       # Write request sizes (log2)
system.mem_ctrls.writePktSize::6               145522                       # Write request sizes (log2)
system.mem_ctrls.rdQLenPdf::0                  103744                       # What read queue length does an incoming req see
system.mem_ctrls.rdQLenPdf::1                  104122                       # What read queue length does an incoming req see
system.mem_ctrls.rdQLenPdf::2                   19446                       # What read queue length does an incoming req see
system.mem_ctrls.rdQLenPdf::3                   19069                       # What read queue length does an incoming req see
system.mem_ctrls.rdQLenPdf::4                       5                       # What read queue length does an incoming req see
system.mem_ctrls.rdQLenPdf::5                       4                       # What read queue length does an incoming req see
system.mem_ctrls.rdQLenPdf::6                       1                       # What read queue length does an incoming req see
system.mem_ctrls.rdQLenPdf::7                       1                       # What read queue length does an incoming req see
system.mem_ctrls.rdQLenPdf::8                       0                       # What read queue length does an incoming req see
system.mem_ctrls.rdQLenPdf::9                       0                       # What read queue length does an incoming req see
system.mem_ctrls.rdQLenPdf::10                      0                       # What read queue length does an incoming req see
system.mem_ctrls.rdQLenPdf::11                      0                       # What read queue length does an incoming req see
system.mem_ctrls.rdQLenPdf::12                      0                       # What read queue length does an incoming req see
system.mem_ctrls.rdQLenPdf::13                      0                       # What read queue length does an incoming req see
system.mem_ctrls.rdQLenPdf::14                      0                       # What read queue length does an incoming req see
system.mem_ctrls.rdQLenPdf::15                      0                       # What read queue length does an incoming req see
system.mem_ctrls.rdQLenPdf::16                      0                       # What read queue length does an incoming req see
system.mem_ctrls.rdQLenPdf::17                      0                       # What read queue length does an incoming req see
system.mem_ctrls.rdQLenPdf::18                      0                       # What read queue length does an incoming req see
system.mem_ctrls.rdQLenPdf::19                      0                       # What read queue length does an incoming req see
system.mem_ctrls.rdQLenPdf::20                      0                       # What read queue length does an incoming req see
system.mem_ctrls.rdQLenPdf::21                      0                       # What read queue length does an incoming req see
system.mem_ctrls.rdQLenPdf::22                      0                       # What read queue length does an incoming req see
system.mem_ctrls.rdQLenPdf::23                      0                       # What read queue length does an incoming req see
system.mem_ctrls.rdQLenPdf::24                      0                       # What read queue length does an incoming req see
system.mem_ctrls.rdQLenPdf::25                      0                       # What read queue length does an incoming req see
system.mem_ctrls.rdQLenPdf::26                      0                       # What read queue length does an incoming req see
system.mem_ctrls.rdQLenPdf::27                      0                       # What read queue length does an incoming req see
system.mem_ctrls.rdQLenPdf::28                      0                       # What read queue length does an incoming req see
system.mem_ctrls.rdQLenPdf::29                      0                       # What read queue length does an incoming req see
system.mem_ctrls.rdQLenPdf::30                      0                       # What read queue length does an incoming req see
system.mem_ctrls.rdQLenPdf::31                      0                       # What read queue length does an incoming req see
system.mem_ctrls.wrQLenPdf::0                       1                       # What write queue length does an incoming req see
system.mem_ctrls.wrQLenPdf::1                       1                       # What write queue length does an incoming req see
system.mem_ctrls.wrQLenPdf::2                       1                       # What write queue length does an incoming req see
system.mem_ctrls.wrQLenPdf::3                       1                       # What write queue length does an incoming req see
system.mem_ctrls.wrQLenPdf::4                       1                       # What write queue length does an incoming req see
system.mem_ctrls.wrQLenPdf::5                       1                       # What write queue length does an incoming req see
system.mem_ctrls.wrQLenPdf::6                       1                       # What write queue length does an incoming req see
system.mem_ctrls.wrQLenPdf::7                       1                       # What write queue length does an incoming req see
system.mem_ctrls.wrQLenPdf::8                       1                       # What write queue length does an incoming req see
system.mem_ctrls.wrQLenPdf::9                       1                       # What write queue length does an incoming req see
system.mem_ctrls.wrQLenPdf::10                      1                       # What write queue length does an incoming req see
system.mem_ctrls.wrQLenPdf::11                      1                       # What write queue length does an incoming req see
system.mem_ctrls.wrQLenPdf::12                      1                       # What write queue length does an incoming req see
system.mem_ctrls.wrQLenPdf::13                      1                       # What write queue length does an incoming req see
system.mem_ctrls.wrQLenPdf::14                      1                       # What write queue length does an incoming req see
system.mem_ctrls.wrQLenPdf::15                   2253                       # What write queue length does an incoming req see
system.mem_ctrls.wrQLenPdf::16                   2279                       # What write queue length does an incoming req see
system.mem_ctrls.wrQLenPdf::17                   5037                       # What write queue length does an incoming req see
system.mem_ctrls.wrQLenPdf::18                   5122                       # What write queue length does an incoming req see
system.mem_ctrls.wrQLenPdf::19                   7894                       # What write queue length does an incoming req see
system.mem_ctrls.wrQLenPdf::20                   8852                       # What write queue length does an incoming req see
system.mem_ctrls.wrQLenPdf::21                   8848                       # What write queue length does an incoming req see
system.mem_ctrls.wrQLenPdf::22                   8859                       # What write queue length does an incoming req see
system.mem_ctrls.wrQLenPdf::23                   8854                       # What write queue length does an incoming req see
system.mem_ctrls.wrQLenPdf::24                   8882                       # What write queue length does an incoming req see
system.mem_ctrls.wrQLenPdf::25                  11057                       # What write queue length does an incoming req see
system.mem_ctrls.wrQLenPdf::26                  11944                       # What write queue length does an incoming req see
system.mem_ctrls.wrQLenPdf::27                   9770                       # What write queue length does an incoming req see
system.mem_ctrls.wrQLenPdf::28                   9169                       # What write queue length does an incoming req see
system.mem_ctrls.wrQLenPdf::29                   9200                       # What write queue length does an incoming req see
system.mem_ctrls.wrQLenPdf::30                   8849                       # What write queue length does an incoming req see
system.mem_ctrls.wrQLenPdf::31                   8794                       # What write queue length does an incoming req see
system.mem_ctrls.wrQLenPdf::32                   8794                       # What write queue length does an incoming req see
system.mem_ctrls.wrQLenPdf::33                   1047                       # What write queue length does an incoming req see
system.mem_ctrls.wrQLenPdf::34                      3                       # What write queue length does an incoming req see
system.mem_ctrls.wrQLenPdf::35                      0                       # What write queue length does an incoming req see
system.mem_ctrls.wrQLenPdf::36                      0                       # What write queue length does an incoming req see
system.mem_ctrls.wrQLenPdf::37                      0                       # What write queue length does an incoming req see
system.mem_ctrls.wrQLenPdf::38                      0                       # What write queue length does an incoming req see
system.mem_ctrls.wrQLenPdf::39                      0                       # What write queue length does an incoming req see
system.mem_ctrls.wrQLenPdf::40                      0                       # What write queue length does an incoming req see
system.mem_ctrls.wrQLenPdf::41                      0                       # What write queue length does an incoming req see
system.mem_ctrls.wrQLenPdf::42                      0                       # What write queue length does an incoming req see
system.mem_ctrls.wrQLenPdf::43                      0                       # What write queue length does an incoming req see
system.mem_ctrls.wrQLenPdf::44                      0                       # What write queue length does an incoming req see
system.mem_ctrls.wrQLenPdf::45                      0                       # What write queue length does an incoming req see
system.mem_ctrls.wrQLenPdf::46                      0                       # What write queue length does an incoming req see
system.mem_ctrls.wrQLenPdf::47                      0                       # What write queue length does an incoming req see
system.mem_ctrls.wrQLenPdf::48                      0                       # What write queue length does an incoming req see
system.mem_ctrls.wrQLenPdf::49                      0                       # What write queue length does an incoming req see
system.mem_ctrls.wrQLenPdf::50                      0                       # What write queue length does an incoming req see
system.mem_ctrls.wrQLenPdf::51                      0                       # What write queue length does an incoming req see
system.mem_ctrls.wrQLenPdf::52                      0                       # What write queue length does an incoming req see
system.mem_ctrls.wrQLenPdf::53                      0                       # What write queue length does an incoming req see
system.mem_ctrls.wrQLenPdf::54                      0                       # What write queue length does an incoming req see
system.mem_ctrls.wrQLenPdf::55                      0                       # What write queue length does an incoming req see
system.mem_ctrls.wrQLenPdf::56                      0                       # What write queue length does an incoming req see
system.mem_ctrls.wrQLenPdf::57                      0                       # What write queue length does an incoming req see
system.mem_ctrls.wrQLenPdf::58                      0                       # What write queue length does an incoming req see
system.mem_ctrls.wrQLenPdf::59                      0                       # What write queue length does an incoming req see
system.mem_ctrls.wrQLenPdf::60                      0                       # What write queue length does an incoming req see
system.mem_ctrls.wrQLenPdf::61                      0                       # What write queue length does an incoming req see
system.mem_ctrls.wrQLenPdf::62                      0                       # What write queue length does an incoming req see
system.mem_ctrls.wrQLenPdf::63                      0                       # What write queue length does an incoming req see
system.mem_ctrls.bytesPerActivate::samples        72444                       # Bytes accessed per row activation
system.mem_ctrls.bytesPerActivate::mean    346.194026                       # Bytes accessed per row activation
system.mem_ctrls.bytesPerActivate::gmean   221.128632                       # Bytes accessed per row activation
system.mem_ctrls.bytesPerActivate::stdev   357.605140                       # Bytes accessed per row activation
system.mem_ctrls.bytesPerActivate::0-127         3432      4.74%      4.74% # Bytes accessed per row activation
system.mem_ctrls.bytesPerActivate::128-255        44073     60.84%     65.57% # Bytes accessed per row activation
system.mem_ctrls.bytesPerActivate::256-383         4799      6.62%     72.20% # Bytes accessed per row activation
system.mem_ctrls.bytesPerActivate::384-511         1544      2.13%     74.33% # Bytes accessed per row activation
system.mem_ctrls.bytesPerActivate::512-639         1386      1.91%     76.24% # Bytes accessed per row activation
system.mem_ctrls.bytesPerActivate::640-767         1808      2.50%     78.74% # Bytes accessed per row activation
system.mem_ctrls.bytesPerActivate::768-895         1031      1.42%     80.16% # Bytes accessed per row activation
system.mem_ctrls.bytesPerActivate::896-1023          917      1.27%     81.43% # Bytes accessed per row activation
system.mem_ctrls.bytesPerActivate::1024-1151        13454     18.57%    100.00% # Bytes accessed per row activation
system.mem_ctrls.bytesPerActivate::total        72444                       # Bytes accessed per row activation
system.mem_ctrls.rdPerTurnAround::samples         8782                       # Reads before turning the bus around for writes
system.mem_ctrls.rdPerTurnAround::mean      28.056251                       # Reads before turning the bus around for writes
system.mem_ctrls.rdPerTurnAround::gmean     21.941188                       # Reads before turning the bus around for writes
system.mem_ctrls.rdPerTurnAround::stdev     82.944881                       # Reads before turning the bus around for writes
system.mem_ctrls.rdPerTurnAround::0-255          8765     99.81%     99.81% # Reads before turning the bus around for writes
system.mem_ctrls.rdPerTurnAround::256-511            5      0.06%     99.86% # Reads before turning the bus around for writes
system.mem_ctrls.rdPerTurnAround::512-767            4      0.05%     99.91% # Reads before turning the bus around for writes
system.mem_ctrls.rdPerTurnAround::1792-2047            5      0.06%     99.97% # Reads before turning the bus around for writes
system.mem_ctrls.rdPerTurnAround::2304-2559            1      0.01%     99.98% # Reads before turning the bus around for writes
[...]
system.cpu.icache.ReadReq_mshr_misses::.cpu.inst          540                       # number of ReadReq MSHR misses
system.cpu.icache.ReadReq_mshr_misses::total          540                       # number of ReadReq MSHR misses
system.cpu.icache.ReadReq_mshr_miss_latency::.cpu.inst     38171000                       # number of ReadReq MSHR miss cycles
system.cpu.icache.ReadReq_mshr_miss_latency::total     38171000                       # number of ReadReq MSHR miss cycles
system.cpu.icache.ReadReq_mshr_miss_rate::.cpu.inst     0.000067                       # mshr miss rate for ReadReq accesses
system.cpu.icache.ReadReq_mshr_miss_rate::total     0.000067                       # mshr miss rate for ReadReq accesses
system.cpu.icache.ReadReq_avg_mshr_miss_latency::.cpu.inst 70687.037037                       # average ReadReq mshr miss latency
system.cpu.icache.ReadReq_avg_mshr_miss_latency::total 70687.037037                       # average ReadReq mshr miss latency
system.cpu.icache.tags.pwrStateResidencyTicks::UNDEFINED  81325274500                       # Cumulative time (in ticks) in various power states
system.cpu.icache.tags.tagsinuse           204.004740                       # Cycle average of tags in use
system.cpu.icache.tags.total_refs             8050908                       # Total number of references to valid blocks.
system.cpu.icache.tags.sampled_refs               540                       # Sample count of references to valid blocks.
system.cpu.icache.tags.avg_refs          14909.088889                       # Average number of references to valid blocks.
system.cpu.icache.tags.warmup_cycle             92500                       # Cycle when the warmup percentage was hit.
system.cpu.icache.tags.occ_blocks::.cpu.inst   204.004740                       # Average occupied blocks per requestor
system.cpu.icache.tags.occ_percent::.cpu.inst     0.796894                       # Average percentage of cache occupancy
system.cpu.icache.tags.occ_percent::total     0.796894                       # Average percentage of cache occupancy
system.cpu.icache.tags.occ_task_id_blocks::1024          238                       # Occupied blocks per task id
system.cpu.icache.tags.age_task_id_blocks_1024::3           52                       # Occupied blocks per task id
system.cpu.icache.tags.age_task_id_blocks_1024::4          186                       # Occupied blocks per task id
system.cpu.icache.tags.occ_task_id_percent::1024     0.929688                       # Percentage of cache occupancy per task id
system.cpu.icache.tags.tag_accesses          16102356                       # Number of tag accesses
system.cpu.icache.tags.data_accesses         16102356                       # Number of data accesses
system.cpu.dtb.walker.pwrStateResidencyTicks::UNDEFINED  81325274500                       # Cumulative time (in ticks) in various power states
system.cpu.dtb.stage2_mmu.stage2_tlb.walker.pwrStateResidencyTicks::UNDEFINED  81325274500                       # Cumulative time (in ticks) in various power states
system.cpu.dcache.pwrStateResidencyTicks::UNDEFINED  81325274500                       # Cumulative time (in ticks) in various power states
system.cpu.dcache.demand_hits::.cpu.data     51545373                       # number of demand (read+write) hits
system.cpu.dcache.demand_hits::total         51545373                       # number of demand (read+write) hits
system.cpu.dcache.overall_hits::.cpu.data     51545972                       # number of overall hits
system.cpu.dcache.overall_hits::total        51545972                       # number of overall hits
system.cpu.dcache.demand_misses::.cpu.data       504497                       # number of demand (read+write) misses
system.cpu.dcache.demand_misses::total         504497                       # number of demand (read+write) misses
system.cpu.dcache.overall_misses::.cpu.data       512317                       # number of overall misses
system.cpu.dcache.overall_misses::total        512317                       # number of overall misses
system.cpu.dcache.demand_miss_latency::.cpu.data  18232470500                       # number of demand (read+write) miss cycles
system.cpu.dcache.demand_miss_latency::total  18232470500                       # number of demand (read+write) miss cycles
system.cpu.dcache.overall_miss_latency::.cpu.data  18232470500                       # number of overall miss cycles
system.cpu.dcache.overall_miss_latency::total  18232470500                       # number of overall miss cycles
system.cpu.dcache.demand_accesses::.cpu.data     52049870                       # number of demand (read+write) accesses
system.cpu.dcache.demand_accesses::total     52049870                       # number of demand (read+write) accesses
system.cpu.dcache.overall_accesses::.cpu.data     52058289                       # number of overall (read+write) accesses
system.cpu.dcache.overall_accesses::total     52058289                       # number of overall (read+write) accesses
system.cpu.dcache.demand_miss_rate::.cpu.data     0.009693                       # miss rate for demand accesses
system.cpu.dcache.demand_miss_rate::total     0.009693                       # miss rate for demand accesses
system.cpu.dcache.overall_miss_rate::.cpu.data     0.009841                       # miss rate for overall accesses
system.cpu.dcache.overall_miss_rate::total     0.009841                       # miss rate for overall accesses
system.cpu.dcache.demand_avg_miss_latency::.cpu.data 36139.898751                       # average overall miss latency
system.cpu.dcache.demand_avg_miss_latency::total 36139.898751                       # average overall miss latency
system.cpu.dcache.overall_avg_miss_latency::.cpu.data 35588.259808                       # average overall miss latency
system.cpu.dcache.overall_avg_miss_latency::total 35588.259808                       # average overall miss latency
system.cpu.dcache.blocked_cycles::no_mshrs            0                       # number of cycles access was blocked
system.cpu.dcache.blocked_cycles::no_targets            0                       # number of cycles access was blocked
system.cpu.dcache.blocked::no_mshrs                 0                       # number of cycles access was blocked
system.cpu.dcache.blocked::no_targets               0                       # number of cycles access was blocked
system.cpu.dcache.avg_blocked_cycles::no_mshrs          nan                       # average number of cycles each access was blocked
system.cpu.dcache.avg_blocked_cycles::no_targets          nan                       # average number of cycles each access was blocked
system.cpu.dcache.writebacks::.writebacks       423673                       # number of writebacks
system.cpu.dcache.writebacks::total            423673                       # number of writebacks
system.cpu.dcache.demand_mshr_hits::.cpu.data        35397                       # number of demand (read+write) MSHR hits
system.cpu.dcache.demand_mshr_hits::total        35397                       # number of demand (read+write) MSHR hits
system.cpu.dcache.overall_mshr_hits::.cpu.data        35397                       # number of overall MSHR hits
system.cpu.dcache.overall_mshr_hits::total        35397                       # number of overall MSHR hits
system.cpu.dcache.demand_mshr_misses::.cpu.data       469100                       # number of demand (read+write) MSHR misses
system.cpu.dcache.demand_mshr_misses::total       469100                       # number of demand (read+write) MSHR misses
system.cpu.dcache.overall_mshr_misses::.cpu.data       473055                       # number of overall MSHR misses
system.cpu.dcache.overall_mshr_misses::total       473055                       # number of overall MSHR misses
system.cpu.dcache.demand_mshr_miss_latency::.cpu.data  15310814500                       # number of demand (read+write) MSHR miss cycles
system.cpu.dcache.demand_mshr_miss_latency::total  15310814500                       # number of demand (read+write) MSHR miss cycles
system.cpu.dcache.overall_mshr_miss_latency::.cpu.data  15638928000                       # number of overall MSHR miss cycles
system.cpu.dcache.overall_mshr_miss_latency::total  15638928000                       # number of overall MSHR miss cycles
system.cpu.dcache.demand_mshr_miss_rate::.cpu.data     0.009013                       # mshr miss rate for demand accesses
system.cpu.dcache.demand_mshr_miss_rate::total     0.009013                       # mshr miss rate for demand accesses
system.cpu.dcache.overall_mshr_miss_rate::.cpu.data     0.009087                       # mshr miss rate for overall accesses
system.cpu.dcache.overall_mshr_miss_rate::total     0.009087                       # mshr miss rate for overall accesses
system.cpu.dcache.demand_avg_mshr_miss_latency::.cpu.data 32638.700703                       # average overall mshr miss latency
system.cpu.dcache.demand_avg_mshr_miss_latency::total 32638.700703                       # average overall mshr miss latency
system.cpu.dcache.overall_avg_mshr_miss_latency::.cpu.data 33059.428608                       # average overall mshr miss latency
system.cpu.dcache.overall_avg_mshr_miss_latency::total 33059.428608                       # average overall mshr miss latency
system.cpu.dcache.replacements                 472030                       # number of replacements
system.cpu.dcache.ReadReq_hits::.cpu.data     40845958                       # number of ReadReq hits
system.cpu.dcache.ReadReq_hits::total        40845958                       # number of ReadReq hits
system.cpu.dcache.ReadReq_misses::.cpu.data       253820                       # number of ReadReq misses
system.cpu.dcache.ReadReq_misses::total        253820                       # number of ReadReq misses
system.cpu.dcache.ReadReq_miss_latency::.cpu.data   6059491500                       # number of ReadReq miss cycles
system.cpu.dcache.ReadReq_miss_latency::total   6059491500                       # number of ReadReq miss cycles
system.cpu.dcache.ReadReq_accesses::.cpu.data     41099778                       # number of ReadReq accesses(hits+misses)
system.cpu.dcache.ReadReq_accesses::total     41099778                       # number of ReadReq accesses(hits+misses)
system.cpu.dcache.ReadReq_miss_rate::.cpu.data     0.006176                       # miss rate for ReadReq accesses
system.cpu.dcache.ReadReq_miss_rate::total     0.006176                       # miss rate for ReadReq accesses
system.cpu.dcache.ReadReq_avg_miss_latency::.cpu.data 23873.183752                       # average ReadReq miss latency
system.cpu.dcache.ReadReq_avg_miss_latency::total 23873.183752                       # average ReadReq miss latency
system.cpu.dcache.ReadReq_mshr_hits::.cpu.data         2634                       # number of ReadReq MSHR hits
system.cpu.dcache.ReadReq_mshr_hits::total         2634                       # number of ReadReq MSHR hits
system.cpu.dcache.ReadReq_mshr_misses::.cpu.data       251186                       # number of ReadReq MSHR misses
system.cpu.dcache.ReadReq_mshr_misses::total       251186                       # number of ReadReq MSHR misses
system.cpu.dcache.ReadReq_mshr_miss_latency::.cpu.data   5661005500                       # number of ReadReq MSHR miss cycles
system.cpu.dcache.ReadReq_mshr_miss_latency::total   5661005500                       # number of ReadReq MSHR miss cycles
system.cpu.dcache.ReadReq_mshr_miss_rate::.cpu.data     0.006112                       # mshr miss rate for ReadReq accesses
system.cpu.dcache.ReadReq_mshr_miss_rate::total     0.006112                       # mshr miss rate for ReadReq accesses
system.cpu.dcache.ReadReq_avg_mshr_miss_latency::.cpu.data 22537.105969                       # average ReadReq mshr miss latency
system.cpu.dcache.ReadReq_avg_mshr_miss_latency::total 22537.105969                       # average ReadReq mshr miss latency
system.cpu.dcache.WriteReq_hits::.cpu.data     10699415                       # number of WriteReq hits
system.cpu.dcache.WriteReq_hits::total       10699415                       # number of WriteReq hits
system.cpu.dcache.WriteReq_misses::.cpu.data       250677                       # number of WriteReq misses
system.cpu.dcache.WriteReq_misses::total       250677                       # number of WriteReq misses
system.cpu.dcache.WriteReq_miss_latency::.cpu.data  12172979000                       # number of WriteReq miss cycles
system.cpu.dcache.WriteReq_miss_latency::total  12172979000                       # number of WriteReq miss cycles
system.cpu.dcache.WriteReq_accesses::.cpu.data     10950092                       # number of WriteReq accesses(hits+misses)
system.cpu.dcache.WriteReq_accesses::total     10950092                       # number of WriteReq accesses(hits+misses)
system.cpu.dcache.WriteReq_miss_rate::.cpu.data     0.022893                       # miss rate for WriteReq accesses
system.cpu.dcache.WriteReq_miss_rate::total     0.022893                       # miss rate for WriteReq accesses
system.cpu.dcache.WriteReq_avg_miss_latency::.cpu.data 48560.414398                       # average WriteReq miss latency
system.cpu.dcache.WriteReq_avg_miss_latency::total 48560.414398                       # average WriteReq miss latency
system.cpu.dcache.WriteReq_mshr_hits::.cpu.data        32763                       # number of WriteReq MSHR hits
system.cpu.dcache.WriteReq_mshr_hits::total        32763                       # number of WriteReq MSHR hits
system.cpu.dcache.WriteReq_mshr_misses::.cpu.data       217914                       # number of WriteReq MSHR misses
system.cpu.dcache.WriteReq_mshr_misses::total       217914                       # number of WriteReq MSHR misses
system.cpu.dcache.WriteReq_mshr_miss_latency::.cpu.data   9649809000                       # number of WriteReq MSHR miss cycles
system.cpu.dcache.WriteReq_mshr_miss_latency::total   9649809000                       # number of WriteReq MSHR miss cycles
system.cpu.dcache.WriteReq_mshr_miss_rate::.cpu.data     0.019901                       # mshr miss rate for WriteReq accesses
system.cpu.dcache.WriteReq_mshr_miss_rate::total     0.019901                       # mshr miss rate for WriteReq accesses
system.cpu.dcache.WriteReq_avg_mshr_miss_latency::.cpu.data 44282.648201                       # average WriteReq mshr miss latency
system.cpu.dcache.WriteReq_avg_mshr_miss_latency::total 44282.648201                       # average WriteReq mshr miss latency
system.cpu.dcache.SoftPFReq_hits::.cpu.data          599                       # number of SoftPFReq hits
system.cpu.dcache.SoftPFReq_hits::total           599                       # number of SoftPFReq hits
system.cpu.dcache.SoftPFReq_misses::.cpu.data         7820                       # number of SoftPFReq misses
system.cpu.dcache.SoftPFReq_misses::total         7820                       # number of SoftPFReq misses
system.cpu.dcache.SoftPFReq_accesses::.cpu.data         8419                       # number of SoftPFReq accesses(hits+misses)
system.cpu.dcache.SoftPFReq_accesses::total         8419                       # number of SoftPFReq accesses(hits+misses)
system.cpu.dcache.SoftPFReq_miss_rate::.cpu.data     0.928851                       # miss rate for SoftPFReq accesses
system.cpu.dcache.SoftPFReq_miss_rate::total     0.928851                       # miss rate for SoftPFReq accesses
system.cpu.dcache.SoftPFReq_mshr_misses::.cpu.data         3955                       # number of SoftPFReq MSHR misses
system.cpu.dcache.SoftPFReq_mshr_misses::total         3955                       # number of SoftPFReq MSHR misses
system.cpu.dcache.SoftPFReq_mshr_miss_latency::.cpu.data    328113500                       # number of SoftPFReq MSHR miss cycles
system.cpu.dcache.SoftPFReq_mshr_miss_latency::total    328113500                       # number of SoftPFReq MSHR miss cycles
system.cpu.dcache.SoftPFReq_mshr_miss_rate::.cpu.data     0.469771                       # mshr miss rate for SoftPFReq accesses
system.cpu.dcache.SoftPFReq_mshr_miss_rate::total     0.469771                       # mshr miss rate for SoftPFReq accesses
system.cpu.dcache.SoftPFReq_avg_mshr_miss_latency::.cpu.data 82961.694058                       # average SoftPFReq mshr miss latency
system.cpu.dcache.SoftPFReq_avg_mshr_miss_latency::total 82961.694058                       # average SoftPFReq mshr miss latency
system.cpu.dcache.LoadLockedReq_hits::.cpu.data           38                       # number of LoadLockedReq hits
system.cpu.dcache.LoadLockedReq_hits::total           38                       # number of LoadLockedReq hits
system.cpu.dcache.LoadLockedReq_accesses::.cpu.data           38                       # number of LoadLockedReq accesses(hits+misses)
system.cpu.dcache.LoadLockedReq_accesses::total           38                       # number of LoadLockedReq accesses(hits+misses)
system.cpu.dcache.StoreCondReq_hits::.cpu.data           38                       # number of StoreCondReq hits
system.cpu.dcache.StoreCondReq_hits::total           38                       # number of StoreCondReq hits
system.cpu.dcache.StoreCondReq_accesses::.cpu.data           38                       # number of StoreCondReq accesses(hits+misses)
system.cpu.dcache.StoreCondReq_accesses::total           38                       # number of StoreCondReq accesses(hits+misses)
system.cpu.dcache.tags.pwrStateResidencyTicks::UNDEFINED  81325274500                       # Cumulative time (in ticks) in various power states
system.cpu.dcache.tags.tagsinuse          1005.830187                       # Cycle average of tags in use
system.cpu.dcache.tags.total_refs            52019102                       # Total number of references to valid blocks.
system.cpu.dcache.tags.sampled_refs            473054                       # Sample count of references to valid blocks.
system.cpu.dcache.tags.avg_refs            109.964406                       # Average number of references to valid blocks.
system.cpu.dcache.tags.warmup_cycle            186500                       # Cycle when the warmup percentage was hit.
system.cpu.dcache.tags.occ_blocks::.cpu.data  1005.830187                       # Average occupied blocks per requestor
system.cpu.dcache.tags.occ_percent::.cpu.data     0.982256                       # Average percentage of cache occupancy
system.cpu.dcache.tags.occ_percent::total     0.982256                       # Average percentage of cache occupancy
system.cpu.dcache.tags.occ_task_id_blocks::1024         1024                       # Occupied blocks per task id
system.cpu.dcache.tags.age_task_id_blocks_1024::0          277                       # Occupied blocks per task id
system.cpu.dcache.tags.age_task_id_blocks_1024::1          494                       # Occupied blocks per task id
system.cpu.dcache.tags.age_task_id_blocks_1024::2          251                       # Occupied blocks per task id
system.cpu.dcache.tags.age_task_id_blocks_1024::3            1                       # Occupied blocks per task id
system.cpu.dcache.tags.age_task_id_blocks_1024::4            1                       # Occupied blocks per task id
system.cpu.dcache.tags.occ_task_id_percent::1024            1                       # Percentage of cache occupancy per task id
system.cpu.dcache.tags.tag_accesses         208706514                       # Number of tag accesses
system.cpu.dcache.tags.data_accesses        208706514                       # Number of data accesses
system.cpu.itb.walker.pwrStateResidencyTicks::UNDEFINED  81325274500                       # Cumulative time (in ticks) in various power states
system.cpu.itb.stage2_mmu.stage2_tlb.walker.pwrStateResidencyTicks::UNDEFINED  81325274500                       # Cumulative time (in ticks) in various power states

---------- End Simulation Statistics   ----------
