
---------- Begin Simulation Statistics ----------
final_tick                               882981166500                       # Number of ticks from beginning of simulation (restored from checkpoints and never reset)
host_inst_rate                                 165366                       # Simulator instruction rate (inst/s)
host_mem_usage                                 688368                       # Number of bytes of host memory used
host_op_rate                                   304563                       # Simulator op (including micro ops) rate (op/s)
host_seconds                                   604.72                       # Real time elapsed on the host
host_tick_rate                             1460151811                       # Simulator tick rate (ticks/s)
sim_freq                                 1000000000000                       # Frequency of simulated ticks
sim_insts                                   100000000                       # Number of instructions simulated
sim_ops                                     184174857                       # Number of ops (including micro ops) simulated
sim_seconds                                  0.882981                       # Number of seconds simulated
sim_ticks                                882981166500                       # Number of ticks simulated
system.cpu.branchPred.BTBCorrect                    0                       # Number of correct BTB predictions (this stat may not work properly.
system.cpu.branchPred.BTBHitPct             99.959689                       # BTB Hit Percentage
system.cpu.branchPred.BTBHits                10561021                       # Number of BTB hits
system.cpu.branchPred.BTBLookups             10565280                       # Number of BTB lookups
system.cpu.branchPred.RASInCorrect                  5                       # Number of incorrect RAS predictions.
system.cpu.branchPred.condIncorrect              1454                       # Number of conditional branches incorrect
system.cpu.branchPred.condPredicted          10561887                       # Number of conditional branches predicted
system.cpu.branchPred.indirectHits                 26                       # Number of indirect target hits.
system.cpu.branchPred.indirectLookups             185                       # Number of indirect predictor lookups.
system.cpu.branchPred.indirectMisses              159                       # Number of indirect misses.
system.cpu.branchPred.lookups                10569925                       # Number of BP lookups
system.cpu.branchPred.usedRAS                    2689                       # Number of times the RAS was used to get a target.
system.cpu.branchPredindirectMispredicted          100                       # Number of mispredicted indirect branches.
system.cpu.committedInsts                   100000000                       # Number of instructions committed
system.cpu.committedOps                     184174857                       # Number of ops (including micro ops) committed
system.cpu.cpi                              17.659623                       # CPI: cycles per instruction
system.cpu.discardedOps                          4241                       # Number of ops (including micro ops) which were discarded before commit
system.cpu.dtb.accesses                             0                       # DTB accesses
system.cpu.dtb.align_faults                         0                       # Number of TLB faults due to alignment restrictions
system.cpu.dtb.domain_faults                        0                       # Number of TLB faults due to domain restrictions
system.cpu.dtb.flush_entries                        0                       # Number of entries that have been flushed from TLB
system.cpu.dtb.flush_tlb                            0                       # Number of times complete TLB was flushed
system.cpu.dtb.flush_tlb_asid                       0                       # Number of times TLB was flushed by ASID
system.cpu.dtb.flush_tlb_mva                        0                       # Number of times TLB was flushed by MVA
system.cpu.dtb.flush_tlb_mva_asid                   0                       # Number of times TLB was flushed by MVA & ASID
system.cpu.dtb.hits                                 0                       # DTB hits
system.cpu.dtb.inst_accesses                        0                       # ITB inst accesses
system.cpu.dtb.inst_hits                            0                       # ITB inst hits
system.cpu.dtb.inst_misses                          0                       # ITB inst misses
system.cpu.dtb.misses                               0                       # DTB misses
system.cpu.dtb.perms_faults                         0                       # Number of TLB faults due to permissions restrictions
system.cpu.dtb.prefetch_faults                      0                       # Number of TLB faults due to prefetch
system.cpu.dtb.read_accesses                        0                       # DTB read accesses
system.cpu.dtb.read_hits                            0                       # DTB read hits
system.cpu.dtb.read_misses                          0                       # DTB read misses
system.cpu.dtb.stage2_mmu.stage2_tlb.accesses            0                       # DTB accesses
system.cpu.dtb.stage2_mmu.stage2_tlb.align_faults            0                       # Number of TLB faults due to alignment restrictions
system.cpu.dtb.stage2_mmu.stage2_tlb.domain_faults            0                       # Number of TLB faults due to domain restrictions
system.cpu.dtb.stage2_mmu.stage2_tlb.flush_entries            0                       # Number of entries that have been flushed from TLB
system.cpu.dtb.stage2_mmu.stage2_tlb.flush_tlb            0                       # Number of times complete TLB was flushed
system.cpu.dtb.stage2_mmu.stage2_tlb.flush_tlb_asid            0                       # Number of times TLB was flushed by ASID
system.cpu.dtb.stage2_mmu.stage2_tlb.flush_tlb_mva            0                       # Number of times TLB was flushed by MVA
system.cpu.dtb.stage2_mmu.stage2_tlb.flush_tlb_mva_asid            0                       # Number of times TLB was flushed by MVA & ASID
system.cpu.dtb.stage2_mmu.stage2_tlb.hits            0                       # DTB hits
system.cpu.dtb.stage2_mmu.stage2_tlb.inst_accesses            0                       # ITB inst accesses
system.cpu.dtb.stage2_mmu.stage2_tlb.inst_hits            0                       # ITB inst hits
system.cpu.dtb.stage2_mmu.stage2_tlb.inst_misses            0                       # ITB inst misses
system.cpu.dtb.stage2_mmu.stage2_tlb.misses            0                       # DTB misses
system.cpu.dtb.stage2_mmu.stage2_tlb.perms_faults            0                       # Number of TLB faults due to permissions restrictions
system.cpu.dtb.stage2_mmu.stage2_tlb.prefetch_faults            0                       # Number of TLB faults due to prefetch
system.cpu.dtb.stage2_mmu.stage2_tlb.read_accesses            0                       # DTB read accesses
system.cpu.dtb.stage2_mmu.stage2_tlb.read_hits            0                       # DTB read hits
system.cpu.dtb.stage2_mmu.stage2_tlb.read_misses            0                       # DTB read misses
system.cpu.dtb.stage2_mmu.stage2_tlb.walker.walkRequestOrigin_Requested::Data            0                       # Table walker requests started/completed, data/inst
system.cpu.dtb.stage2_mmu.stage2_tlb.walker.walkRequestOrigin_Requested::Inst            0                       # Table walker requests started/completed, data/inst
system.cpu.dtb.stage2_mmu.stage2_tlb.walker.walkRequestOrigin_Requested::total            0                       # Table walker requests started/completed, data/inst
system.cpu.dtb.stage2_mmu.stage2_tlb.walker.walkRequestOrigin_Completed::Data            0                       # Table walker requests started/completed, data/inst
system.cpu.dtb.stage2_mmu.stage2_tlb.walker.walkRequestOrigin_Completed::Inst            0                       # Table walker requests started/completed, data/inst
system.cpu.dtb.stage2_mmu.stage2_tlb.walker.walkRequestOrigin_Completed::total            0                       # Table walker requests started/completed, data/inst
system.cpu.dtb.stage2_mmu.stage2_tlb.walker.walkRequestOrigin::total            0                       # Table walker requests started/completed, data/inst
system.cpu.dtb.stage2_mmu.stage2_tlb.walker.walks            0                       # Table walker walks requested
system.cpu.dtb.stage2_mmu.stage2_tlb.write_accesses            0                       # DTB write accesses
system.cpu.dtb.stage2_mmu.stage2_tlb.write_hits            0                       # DTB write hits
system.cpu.dtb.stage2_mmu.stage2_tlb.write_misses            0                       # DTB write misses
system.cpu.dtb.walker.walkRequestOrigin_Requested::Data            0                       # Table walker requests started/completed, data/inst
system.cpu.dtb.walker.walkRequestOrigin_Requested::Inst            0                       # Table walker requests started/completed, data/inst
system.cpu.dtb.walker.walkRequestOrigin_Requested::total            0                       # Table walker requests started/completed, data/inst
system.cpu.dtb.walker.walkRequestOrigin_Completed::Data            0                       # Table walker requests started/completed, data/inst
system.cpu.dtb.walker.walkRequestOrigin_Completed::Inst            0                       # Table walker requests started/completed, data/inst
system.cpu.dtb.walker.walkRequestOrigin_Completed::total            0                       # Table walker requests started/completed, data/inst
system.cpu.dtb.walker.walkRequestOrigin::total            0                       # Table walker requests started/completed, data/inst
system.cpu.dtb.walker.walks                         0                       # Table walker walks requested
system.cpu.dtb.write_accesses                       0                       # DTB write accesses
system.cpu.dtb.write_hits                           0                       # DTB write hits
system.cpu.dtb.write_misses                         0                       # DTB write misses
system.cpu.fetch2.amo_instructions                  0                       # Number of memory atomic instructions successfully decoded
system.cpu.fetch2.fp_instructions                   0                       # Number of floating point instructions successfully decoded
system.cpu.fetch2.int_instructions           44894135                       # Number of integer instructions successfully decoded
system.cpu.fetch2.load_instructions           2086039                       # Number of memory load instructions successfully decoded
system.cpu.fetch2.store_instructions           168914                       # Number of memory store instructions successfully decoded
system.cpu.fetch2.vec_instructions                  0                       # Number of SIMD instructions successfully decoded
system.cpu.idleCycles                      1507931229                       # Total number of cycles that the object has spent stopped
system.cpu.ipc                               0.056626                       # IPC: instructions per cycle
system.cpu.itb.accesses                             0                       # DTB accesses
system.cpu.itb.align_faults                         0                       # Number of TLB faults due to alignment restrictions
system.cpu.itb.domain_faults                        0                       # Number of TLB faults due to domain restrictions
system.cpu.itb.flush_entries                        0                       # Number of entries that have been flushed from TLB
system.cpu.itb.flush_tlb                            0                       # Number of times complete TLB was flushed
system.cpu.itb.flush_tlb_asid                       0                       # Number of times TLB was flushed by ASID
system.cpu.itb.flush_tlb_mva                        0                       # Number of times TLB was flushed by MVA
system.cpu.itb.flush_tlb_mva_asid                   0                       # Number of times TLB was flushed by MVA & ASID
system.cpu.itb.hits                                 0                       # DTB hits
system.cpu.itb.inst_accesses                        0                       # ITB inst accesses
system.cpu.itb.inst_hits                            0                       # ITB inst hits
system.cpu.itb.inst_misses                          0                       # ITB inst misses
system.cpu.itb.misses                               0                       # DTB misses
system.cpu.itb.perms_faults                         0                       # Number of TLB faults due to permissions restrictions
system.cpu.itb.prefetch_faults                      0                       # Number of TLB faults due to prefetch
system.cpu.itb.read_accesses                        0                       # DTB read accesses
system.cpu.itb.read_hits                            0                       # DTB read hits
system.cpu.itb.read_misses                          0                       # DTB read misses
system.cpu.itb.stage2_mmu.stage2_tlb.accesses            0                       # DTB accesses
system.cpu.itb.stage2_mmu.stage2_tlb.align_faults            0                       # Number of TLB faults due to alignment restrictions
system.cpu.itb.stage2_mmu.stage2_tlb.domain_faults            0                       # Number of TLB faults due to domain restrictions
system.cpu.itb.stage2_mmu.stage2_tlb.flush_entries            0                       # Number of entries that have been flushed from TLB
system.cpu.itb.stage2_mmu.stage2_tlb.flush_tlb            0                       # Number of times complete TLB was flushed
system.cpu.itb.stage2_mmu.stage2_tlb.flush_tlb_asid            0                       # Number of times TLB was flushed by ASID
system.cpu.itb.stage2_mmu.stage2_tlb.flush_tlb_mva            0                       # Number of times TLB was flushed by MVA
system.cpu.itb.stage2_mmu.stage2_tlb.flush_tlb_mva_asid            0                       # Number of times TLB was flushed by MVA & ASID
system.cpu.itb.stage2_mmu.stage2_tlb.hits            0                       # DTB hits
system.cpu.itb.stage2_mmu.stage2_tlb.inst_accesses            0                       # ITB inst accesses
system.cpu.itb.stage2_mmu.stage2_tlb.inst_hits            0                       # ITB inst hits
system.cpu.itb.stage2_mmu.stage2_tlb.inst_misses            0                       # ITB inst misses
system.cpu.itb.stage2_mmu.stage2_tlb.misses            0                       # DTB misses
system.cpu.itb.stage2_mmu.stage2_tlb.perms_faults            0                       # Number of TLB faults due to permissions restrictions
system.cpu.itb.stage2_mmu.stage2_tlb.prefetch_faults            0                       # Number of TLB faults due to prefetch
system.cpu.itb.stage2_mmu.stage2_tlb.read_accesses            0                       # DTB read accesses
system.cpu.itb.stage2_mmu.stage2_tlb.read_hits            0                       # DTB read hits
system.cpu.itb.stage2_mmu.stage2_tlb.read_misses            0                       # DTB read misses
system.cpu.itb.stage2_mmu.stage2_tlb.walker.walkRequestOrigin_Requested::Data            0                       # Table walker requests started/completed, data/inst
system.cpu.itb.stage2_mmu.stage2_tlb.walker.walkRequestOrigin_Requested::Inst            0                       # Table walker requests started/completed, data/inst
system.cpu.itb.stage2_mmu.stage2_tlb.walker.walkRequestOrigin_Requested::total            0                       # Table walker requests started/completed, data/inst
system.cpu.itb.stage2_mmu.stage2_tlb.walker.walkRequestOrigin_Completed::Data            0                       # Table walker requests started/completed, data/inst
system.cpu.itb.stage2_mmu.stage2_tlb.walker.walkRequestOrigin_Completed::Inst            0                       # Table walker requests started/completed, data/inst
system.cpu.itb.stage2_mmu.stage2_tlb.walker.walkRequestOrigin_Completed::total            0                       # Table walker requests started/completed, data/inst
system.cpu.itb.stage2_mmu.stage2_tlb.walker.walkRequestOrigin::total            0                       # Table walker requests started/completed, data/inst
system.cpu.itb.stage2_mmu.stage2_tlb.walker.walks            0                       # Table walker walks requested
system.cpu.itb.stage2_mmu.stage2_tlb.write_accesses            0                       # DTB write accesses
system.cpu.itb.stage2_mmu.stage2_tlb.write_hits            0                       # DTB write hits
system.cpu.itb.stage2_mmu.stage2_tlb.write_misses            0                       # DTB write misses
system.cpu.itb.walker.walkRequestOrigin_Requested::Data            0                       # Table walker requests started/completed, data/inst
system.cpu.itb.walker.walkRequestOrigin_Requested::Inst            0                       # Table walker requests started/completed, data/inst
system.cpu.itb.walker.walkRequestOrigin_Requested::total            0                       # Table walker requests started/completed, data/inst
system.cpu.itb.walker.walkRequestOrigin_Completed::Data            0                       # Table walker requests started/completed, data/inst
system.cpu.itb.walker.walkRequestOrigin_Completed::Inst            0                       # Table walker requests started/completed, data/inst
system.cpu.itb.walker.walkRequestOrigin_Completed::total            0                       # Table walker requests started/completed, data/inst
system.cpu.itb.walker.walkRequestOrigin::total            0                       # Table walker requests started/completed, data/inst
system.cpu.itb.walker.walks                         0                       # Table walker walks requested
system.cpu.itb.write_accesses                       0                       # DTB write accesses
system.cpu.itb.write_hits                           0                       # DTB write hits
system.cpu.itb.write_misses                         0                       # DTB write misses
system.cpu.numCycles                       1765962333                       # number of cpu cycles simulated
system.cpu.numFetchSuspends                         0                       # Number of times Execute suspended instruction fetching
system.cpu.numWorkItemsCompleted                    0                       # number of work items this cpu completed
system.cpu.numWorkItemsStarted                      0                       # number of work items this cpu started
system.cpu.op_class_0::No_OpClass                   0      0.00%      0.00% # Class of committed instruction
system.cpu.op_class_0::IntAlu                97640483     53.02%     53.02% # Class of committed instruction
system.cpu.op_class_0::IntMult                 114699      0.06%     53.08% # Class of committed instruction
system.cpu.op_class_0::IntDiv                       0      0.00%     53.08% # Class of committed instruction
system.cpu.op_class_0::FloatAdd                     0      0.00%     53.08% # Class of committed instruction
system.cpu.op_class_0::FloatCmp                     0      0.00%     53.08% # Class of committed instruction
system.cpu.op_class_0::FloatCvt                     0      0.00%     53.08% # Class of committed instruction
system.cpu.op_class_0::FloatMult                    0      0.00%     53.08% # Class of committed instruction
system.cpu.op_class_0::FloatMultAcc                 0      0.00%     53.08% # Class of committed instruction
system.cpu.op_class_0::FloatDiv                     0      0.00%     53.08% # Class of committed instruction
system.cpu.op_class_0::FloatMisc                    0      0.00%     53.08% # Class of committed instruction
system.cpu.op_class_0::FloatSqrt                    0      0.00%     53.08% # Class of committed instruction
system.cpu.op_class_0::SimdAdd                      8      0.00%     53.08% # Class of committed instruction
system.cpu.op_class_0::SimdAddAcc                   0      0.00%     53.08% # Class of committed instruction
system.cpu.op_class_0::SimdAlu                      8      0.00%     53.08% # Class of committed instruction
system.cpu.op_class_0::SimdCmp                      6      0.00%     53.08% # Class of committed instruction
system.cpu.op_class_0::SimdCvt                      0      0.00%     53.08% # Class of committed instruction
system.cpu.op_class_0::SimdMisc                     1      0.00%     53.08% # Class of committed instruction
system.cpu.op_class_0::SimdMult                     0      0.00%     53.08% # Class of committed instruction
system.cpu.op_class_0::SimdMultAcc                  0      0.00%     53.08% # Class of committed instruction
system.cpu.op_class_0::SimdShift                    0      0.00%     53.08% # Class of committed instruction
system.cpu.op_class_0::SimdShiftAcc                 0      0.00%     53.08% # Class of committed instruction
system.cpu.op_class_0::SimdDiv                      0      0.00%     53.08% # Class of committed instruction
system.cpu.op_class_0::SimdSqrt                     0      0.00%     53.08% # Class of committed instruction
system.cpu.op_class_0::SimdFloatAdd                 0      0.00%     53.08% # Class of committed instruction
system.cpu.op_class_0::SimdFloatAlu                 0      0.00%     53.08% # Class of committed instruction
system.cpu.op_class_0::SimdFloatCmp                 0      0.00%     53.08% # Class of committed instruction
system.cpu.op_class_0::SimdFloatCvt                 0      0.00%     53.08% # Class of committed instruction
system.cpu.op_class_0::SimdFloatDiv                 0      0.00%     53.08% # Class of committed instruction
system.cpu.op_class_0::SimdFloatMisc               23      0.00%     53.08% # Class of committed instruction
system.cpu.op_class_0::SimdFloatMult                0      0.00%     53.08% # Class of committed instruction
system.cpu.op_class_0::SimdFloatMultAcc             0      0.00%     53.08% # Class of committed instruction
system.cpu.op_class_0::SimdFloatSqrt                0      0.00%     53.08% # Class of committed instruction
system.cpu.op_class_0::SimdReduceAdd                0      0.00%     53.08% # Class of committed instruction
system.cpu.op_class_0::SimdReduceAlu                0      0.00%     53.08% # Class of committed instruction
system.cpu.op_class_0::SimdReduceCmp                0      0.00%     53.08% # Class of committed instruction
system.cpu.op_class_0::SimdFloatReduceAdd            0      0.00%     53.08% # Class of committed instruction
system.cpu.op_class_0::SimdFloatReduceCmp            0      0.00%     53.08% # Class of committed instruction
system.cpu.op_class_0::SimdAes                      0      0.00%     53.08% # Class of committed instruction
system.cpu.op_class_0::SimdAesMix                   0      0.00%     53.08% # Class of committed instruction
system.cpu.op_class_0::SimdSha1Hash                 0      0.00%     53.08% # Class of committed instruction
system.cpu.op_class_0::SimdSha1Hash2                0      0.00%     53.08% # Class of committed instruction
system.cpu.op_class_0::SimdSha256Hash               0      0.00%     53.08% # Class of committed instruction
system.cpu.op_class_0::SimdSha256Hash2              0      0.00%     53.08% # Class of committed instruction
system.cpu.op_class_0::SimdShaSigma2                0      0.00%     53.08% # Class of committed instruction
system.cpu.op_class_0::SimdShaSigma3                0      0.00%     53.08% # Class of committed instruction
system.cpu.op_class_0::SimdPredAlu                  0      0.00%     53.08% # Class of committed instruction
system.cpu.op_class_0::MemRead                2082677      1.13%     54.21% # Class of committed instruction
system.cpu.op_class_0::MemWrite              84336952     45.79%    100.00% # Class of committed instruction
system.cpu.op_class_0::FloatMemRead                 0      0.00%    100.00% # Class of committed instruction
system.cpu.op_class_0::FloatMemWrite                0      0.00%    100.00% # Class of committed instruction
system.cpu.op_class_0::IprAccess                    0      0.00%    100.00% # Class of committed instruction
system.cpu.op_class_0::InstPrefetch                 0      0.00%    100.00% # Class of committed instruction
system.cpu.op_class_0::total                184174857                       # Class of committed instruction
system.cpu.tickCycles                       258031104                       # Number of cycles that the object actually ticked
system.cpu.workload.numSyscalls                    18                       # Number of system calls
system.membus.snoop_filter.hit_multi_requests            0                       # Number of requests hitting in the snoop filter with multiple (>1) holders of the requested data.
system.membus.snoop_filter.hit_multi_snoops            0                       # Number of snoops hitting in the snoop filter with multiple (>1) holders of the requested data.
system.membus.snoop_filter.hit_single_requests     10509929                       # Number of requests hitting in the snoop filter with a single holder of the requested data.
system.membus.snoop_filter.hit_single_snoops            0                       # Number of snoops hitting in the snoop filter with a single holder of the requested data.
system.membus.snoop_filter.tot_requests      21036963                       # Total number of requests made to the snoop filter.
system.membus.snoop_filter.tot_snoops               0                       # Total number of snoops made to the snoop filter.
system.tol2bus.snoop_filter.hit_multi_requests           63                       # Number of requests hitting in the snoop filter with multiple (>1) holders of the requested data.
system.tol2bus.snoop_filter.hit_multi_snoops            8                       # Number of snoops hitting in the snoop filter with multiple (>1) holders of the requested data.
system.tol2bus.snoop_filter.hit_single_requests     10524389                       # Number of requests hitting in the snoop filter with a single holder of the requested data.
system.tol2bus.snoop_filter.hit_single_snoops          978                       # Number of snoops hitting in the snoop filter with a single holder of the requested data.
system.tol2bus.snoop_filter.tot_requests     21051559                       # Total number of requests made to the snoop filter.
system.tol2bus.snoop_filter.tot_snoops            986                       # Total number of snoops made to the snoop filter.
system.membus.pwrStateResidencyTicks::UNDEFINED 882981166500                       # Cumulative time (in ticks) in various power states
system.membus.trans_dist::ReadResp               1326                       # Transaction distribution
system.membus.trans_dist::WritebackDirty     10509375                       # Transaction distribution
system.membus.trans_dist::CleanEvict              543                       # Transaction distribution
system.membus.trans_dist::ReadExReq          10525718                       # Transaction distribution
system.membus.trans_dist::ReadExResp         10525718                       # Transaction distribution
system.membus.trans_dist::ReadSharedReq          1326                       # Transaction distribution
system.membus.trans_dist::InvalidateReq             1                       # Transaction distribution
system.membus.pkt_count_system.l2.mem_side::system.mem_ctrls.port     31564007                       # Packet count per connected master and slave (bytes)
system.membus.pkt_count::total               31564007                       # Packet count per connected master and slave (bytes)
system.membus.pkt_size_system.l2.mem_side::system.mem_ctrls.port    673165408                       # Cumulative packet size per connected master and slave (bytes)
system.membus.pkt_size::total               673165408                       # Cumulative packet size per connected master and slave (bytes)
system.membus.snoops                                0                       # Total snoops (count)
system.membus.snoopTraffic                          0                       # Total snoop traffic (bytes)
system.membus.snoop_fanout::samples          10527045                       # Request fanout histogram
system.membus.snoop_fanout::mean                    0                       # Request fanout histogram
system.membus.snoop_fanout::stdev                   0                       # Request fanout histogram
system.membus.snoop_fanout::underflows              0      0.00%      0.00% # Request fanout histogram
system.membus.snoop_fanout::0                10527045    100.00%    100.00% # Request fanout histogram
system.membus.snoop_fanout::1                       0      0.00%    100.00% # Request fanout histogram
system.membus.snoop_fanout::overflows               0      0.00%    100.00% # Request fanout histogram
system.membus.snoop_fanout::min_value               0                       # Request fanout histogram
system.membus.snoop_fanout::max_value               0                       # Request fanout histogram
system.membus.snoop_fanout::total            10527045                       # Request fanout histogram
system.membus.respLayer1.occupancy        34357762000                       # Layer occupancy (ticks)
system.membus.respLayer1.utilization              3.9                       # Layer utilization (%)
system.membus.reqLayer0.occupancy         42057383000                       # Layer occupancy (ticks)
system.membus.reqLayer0.utilization               4.8                       # Layer utilization (%)
system.tol2bus.pwrStateResidencyTicks::UNDEFINED 882981166500                       # Cumulative time (in ticks) in various power states
system.tol2bus.trans_dist::ReadResp              1436                       # Transaction distribution
system.tol2bus.trans_dist::WritebackDirty     21033114                       # Transaction distribution
system.tol2bus.trans_dist::WritebackClean          230                       # Transaction distribution
system.tol2bus.trans_dist::CleanEvict            1921                       # Transaction distribution
system.tol2bus.trans_dist::ReadExReq         10525733                       # Transaction distribution
system.tol2bus.trans_dist::ReadExResp        10525732                       # Transaction distribution
system.tol2bus.trans_dist::ReadCleanReq           962                       # Transaction distribution
system.tol2bus.trans_dist::ReadSharedReq          474                       # Transaction distribution
system.tol2bus.trans_dist::InvalidateReq            1                       # Transaction distribution
system.tol2bus.trans_dist::InvalidateResp            1                       # Transaction distribution
system.tol2bus.pkt_count_system.cpu.icache.mem_side::system.l2.cpu_side         2154                       # Packet count per connected master and slave (bytes)
system.tol2bus.pkt_count_system.cpu.dcache.mem_side::system.l2.cpu_side     31576574                       # Packet count per connected master and slave (bytes)
system.tol2bus.pkt_count::total              31578728                       # Packet count per connected master and slave (bytes)
system.tol2bus.pkt_size_system.cpu.icache.mem_side::system.l2.cpu_side        38144                       # Cumulative packet size per connected master and slave (bytes)
system.tol2bus.pkt_size_system.cpu.dcache.mem_side::system.l2.cpu_side    673598240                       # Cumulative packet size per connected master and slave (bytes)
system.tol2bus.pkt_size::total              673636384                       # Cumulative packet size per connected master and slave (bytes)
system.tol2bus.snoops                        10510876                       # Total snoops (count)
system.tol2bus.snoopTraffic                 336300000                       # Total snoop traffic (bytes)
system.tol2bus.snoop_fanout::samples         21038046                       # Request fanout histogram
system.tol2bus.snoop_fanout::mean            0.000050                       # Request fanout histogram
system.tol2bus.snoop_fanout::stdev           0.007141                       # Request fanout histogram
system.tol2bus.snoop_fanout::underflows             0      0.00%      0.00% # Request fanout histogram
system.tol2bus.snoop_fanout::0               21036997    100.00%    100.00% # Request fanout histogram
system.tol2bus.snoop_fanout::1                   1041      0.00%    100.00% # Request fanout histogram
system.tol2bus.snoop_fanout::2                      8      0.00%    100.00% # Request fanout histogram
system.tol2bus.snoop_fanout::overflows              0      0.00%    100.00% # Request fanout histogram
system.tol2bus.snoop_fanout::min_value              0                       # Request fanout histogram
system.tol2bus.snoop_fanout::max_value              2                       # Request fanout histogram
system.tol2bus.snoop_fanout::total           21038046                       # Request fanout histogram
system.tol2bus.reqLayer0.occupancy        15787764000                       # Layer occupancy (ticks)
system.tol2bus.reqLayer0.utilization              1.8                       # Layer utilization (%)
system.tol2bus.respLayer1.occupancy       10526207498                       # Layer occupancy (ticks)
system.tol2bus.respLayer1.utilization             1.2                       # Layer utilization (%)
system.tol2bus.respLayer0.occupancy            962000                       # Layer occupancy (ticks)
system.tol2bus.respLayer0.utilization             0.0                       # Layer utilization (%)
system.voltage_domain.voltage                       1                       # Voltage in Volts
system.clk_domain.clock                          1000                       # Clock period in ticks
system.l2.pwrStateResidencyTicks::UNDEFINED 882981166500                       # Cumulative time (in ticks) in various power states
system.l2.demand_hits::.cpu.inst                   54                       # number of demand (read+write) hits
system.l2.demand_hits::.cpu.data                   68                       # number of demand (read+write) hits
system.l2.demand_hits::total                      122                       # number of demand (read+write) hits
system.l2.overall_hits::.cpu.inst                  54                       # number of overall hits
system.l2.overall_hits::.cpu.data                  68                       # number of overall hits
system.l2.overall_hits::total                     122                       # number of overall hits
system.l2.demand_misses::.cpu.inst                908                       # number of demand (read+write) misses
system.l2.demand_misses::.cpu.data           10526139                       # number of demand (read+write) misses
system.l2.demand_misses::total               10527047                       # number of demand (read+write) misses
system.l2.overall_misses::.cpu.inst               908                       # number of overall misses
system.l2.overall_misses::.cpu.data          10526139                       # number of overall misses
system.l2.overall_misses::total              10527047                       # number of overall misses
system.l2.demand_miss_latency::.cpu.inst     70611000                       # number of demand (read+write) miss cycles
system.l2.demand_miss_latency::.cpu.data 811901911000                       # number of demand (read+write) miss cycles
system.l2.demand_miss_latency::total     811972522000                       # number of demand (read+write) miss cycles
system.l2.overall_miss_latency::.cpu.inst     70611000                       # number of overall miss cycles
system.l2.overall_miss_latency::.cpu.data 811901911000                       # number of overall miss cycles
system.l2.overall_miss_latency::total    811972522000                       # number of overall miss cycles
system.l2.demand_accesses::.cpu.inst              962                       # number of demand (read+write) accesses
system.l2.demand_accesses::.cpu.data         10526207                       # number of demand (read+write) accesses
system.l2.demand_accesses::total             10527169                       # number of demand (read+write) accesses
system.l2.overall_accesses::.cpu.inst             962                       # number of overall (read+write) accesses
system.l2.overall_accesses::.cpu.data        10526207                       # number of overall (read+write) accesses
system.l2.overall_accesses::total            10527169                       # number of overall (read+write) accesses
system.l2.demand_miss_rate::.cpu.inst        0.943867                       # miss rate for demand accesses
system.l2.demand_miss_rate::.cpu.data        0.999994                       # miss rate for demand accesses
system.l2.demand_miss_rate::total            0.999988                       # miss rate for demand accesses
system.l2.overall_miss_rate::.cpu.inst       0.943867                       # miss rate for overall accesses
system.l2.overall_miss_rate::.cpu.data       0.999994                       # miss rate for overall accesses
system.l2.overall_miss_rate::total           0.999988                       # miss rate for overall accesses
system.l2.demand_avg_miss_latency::.cpu.inst 77765.418502                       # average overall miss latency
system.l2.demand_avg_miss_latency::.cpu.data 77131.976977                       # average overall miss latency
system.l2.demand_avg_miss_latency::total 77132.031613                       # average overall miss latency
system.l2.overall_avg_miss_latency::.cpu.inst 77765.418502                       # average overall miss latency
system.l2.overall_avg_miss_latency::.cpu.data 77131.976977                       # average overall miss latency
system.l2.overall_avg_miss_latency::total 77132.031613                       # average overall miss latency
system.l2.blocked_cycles::no_mshrs                  0                       # number of cycles access was blocked
system.l2.blocked_cycles::no_targets                0                       # number of cycles access was blocked
system.l2.blocked::no_mshrs                         0                       # number of cycles access was blocked
system.l2.blocked::no_targets                       0                       # number of cycles access was blocked
system.l2.avg_blocked_cycles::no_mshrs            nan                       # average number of cycles each access was blocked
system.l2.avg_blocked_cycles::no_targets          nan                       # average number of cycles each access was blocked
system.l2.writebacks::.writebacks            10509375                       # number of writebacks
system.l2.writebacks::total                  10509375                       # number of writebacks
system.l2.demand_mshr_hits::.cpu.data               2                       # number of demand (read+write) MSHR hits
system.l2.demand_mshr_hits::total                   2                       # number of demand (read+write) MSHR hits
system.l2.overall_mshr_hits::.cpu.data              2                       # number of overall MSHR hits
system.l2.overall_mshr_hits::total                  2                       # number of overall MSHR hits
system.l2.demand_mshr_misses::.cpu.inst           908                       # number of demand (read+write) MSHR misses
system.l2.demand_mshr_misses::.cpu.data      10526137                       # number of demand (read+write) MSHR misses
system.l2.demand_mshr_misses::total          10527045                       # number of demand (read+write) MSHR misses
system.l2.overall_mshr_misses::.cpu.inst          908                       # number of overall MSHR misses
system.l2.overall_mshr_misses::.cpu.data     10526137                       # number of overall MSHR misses
system.l2.overall_mshr_misses::total         10527045                       # number of overall MSHR misses
system.l2.demand_mshr_miss_latency::.cpu.inst     61531000                       # number of demand (read+write) MSHR miss cycles
system.l2.demand_mshr_miss_latency::.cpu.data 706640399500                       # number of demand (read+write) MSHR miss cycles
system.l2.demand_mshr_miss_latency::total 706701930500                       # number of demand (read+write) MSHR miss cycles
system.l2.overall_mshr_miss_latency::.cpu.inst     61531000                       # number of overall MSHR miss cycles
system.l2.overall_mshr_miss_latency::.cpu.data 706640399500                       # number of overall MSHR miss cycles
system.l2.overall_mshr_miss_latency::total 706701930500                       # number of overall MSHR miss cycles
system.l2.demand_mshr_miss_rate::.cpu.inst     0.943867                       # mshr miss rate for demand accesses
system.l2.demand_mshr_miss_rate::.cpu.data     0.999993                       # mshr miss rate for demand accesses
system.l2.demand_mshr_miss_rate::total       0.999988                       # mshr miss rate for demand accesses
system.l2.overall_mshr_miss_rate::.cpu.inst     0.943867                       # mshr miss rate for overall accesses
system.l2.overall_mshr_miss_rate::.cpu.data     0.999993                       # mshr miss rate for overall accesses
system.l2.overall_mshr_miss_rate::total      0.999988                       # mshr miss rate for overall accesses
system.l2.demand_avg_mshr_miss_latency::.cpu.inst 67765.418502                       # average overall mshr miss latency
system.l2.demand_avg_mshr_miss_latency::.cpu.data 67131.978189                       # average overall mshr miss latency
system.l2.demand_avg_mshr_miss_latency::total 67132.032826                       # average overall mshr miss latency
system.l2.overall_avg_mshr_miss_latency::.cpu.inst 67765.418502                       # average overall mshr miss latency
system.l2.overall_avg_mshr_miss_latency::.cpu.data 67131.978189                       # average overall mshr miss latency
system.l2.overall_avg_mshr_miss_latency::total 67132.032826                       # average overall mshr miss latency
system.l2.replacements                       10510876                       # number of replacements
system.l2.WritebackDirty_hits::.writebacks     10523739                       # number of WritebackDirty hits
system.l2.WritebackDirty_hits::total         10523739                       # number of WritebackDirty hits
system.l2.WritebackDirty_accesses::.writebacks     10523739                       # number of WritebackDirty accesses(hits+misses)
system.l2.WritebackDirty_accesses::total     10523739                       # number of WritebackDirty accesses(hits+misses)
system.l2.WritebackClean_hits::.writebacks          226                       # number of WritebackClean hits
system.l2.WritebackClean_hits::total              226                       # number of WritebackClean hits
system.l2.WritebackClean_accesses::.writebacks          226                       # number of WritebackClean accesses(hits+misses)
system.l2.WritebackClean_accesses::total          226                       # number of WritebackClean accesses(hits+misses)
system.l2.CleanEvict_mshr_misses::.writebacks           28                       # number of CleanEvict MSHR misses
system.l2.CleanEvict_mshr_misses::total            28                       # number of CleanEvict MSHR misses
system.l2.CleanEvict_mshr_miss_rate::.writebacks          inf                       # mshr miss rate for CleanEvict accesses
system.l2.CleanEvict_mshr_miss_rate::total          inf                       # mshr miss rate for CleanEvict accesses
system.l2.ReadExReq_hits::.cpu.data                14                       # number of ReadExReq hits
system.l2.ReadExReq_hits::total                    14                       # number of ReadExReq hits
system.l2.ReadExReq_misses::.cpu.data        10525719                       # number of ReadExReq misses
system.l2.ReadExReq_misses::total            10525719                       # number of ReadExReq misses
system.l2.ReadExReq_miss_latency::.cpu.data 811866517500                       # number of ReadExReq miss cycles
system.l2.ReadExReq_miss_latency::total  811866517500                       # number of ReadExReq miss cycles
system.l2.ReadExReq_accesses::.cpu.data      10525733                       # number of ReadExReq accesses(hits+misses)
system.l2.ReadExReq_accesses::total          10525733                       # number of ReadExReq accesses(hits+misses)
system.l2.ReadExReq_miss_rate::.cpu.data     0.999999                       # miss rate for ReadExReq accesses
system.l2.ReadExReq_miss_rate::total         0.999999                       # miss rate for ReadExReq accesses
system.l2.ReadExReq_avg_miss_latency::.cpu.data 77131.692144                       # average ReadExReq miss latency
system.l2.ReadExReq_avg_miss_latency::total 77131.692144                       # average ReadExReq miss latency
system.l2.ReadExReq_mshr_misses::.cpu.data     10525719                       # number of ReadExReq MSHR misses
system.l2.ReadExReq_mshr_misses::total       10525719                       # number of ReadExReq MSHR misses
system.l2.ReadExReq_mshr_miss_latency::.cpu.data 706609337500                       # number of ReadExReq MSHR miss cycles
system.l2.ReadExReq_mshr_miss_latency::total 706609337500                       # number of ReadExReq MSHR miss cycles
system.l2.ReadExReq_mshr_miss_rate::.cpu.data     0.999999                       # mshr miss rate for ReadExReq accesses
system.l2.ReadExReq_mshr_miss_rate::total     0.999999                       # mshr miss rate for ReadExReq accesses
system.l2.ReadExReq_avg_mshr_miss_latency::.cpu.data 67131.693094                       # average ReadExReq mshr miss latency
system.l2.ReadExReq_avg_mshr_miss_latency::total 67131.693094                       # average ReadExReq mshr miss latency
system.l2.ReadCleanReq_hits::.cpu.inst             54                       # number of ReadCleanReq hits
system.l2.ReadCleanReq_hits::total                 54                       # number of ReadCleanReq hits
system.l2.ReadCleanReq_misses::.cpu.inst          908                       # number of ReadCleanReq misses
system.l2.ReadCleanReq_misses::total              908                       # number of ReadCleanReq misses
system.l2.ReadCleanReq_miss_latency::.cpu.inst     70611000                       # number of ReadCleanReq miss cycles
system.l2.ReadCleanReq_miss_latency::total     70611000                       # number of ReadCleanReq miss cycles
system.l2.ReadCleanReq_accesses::.cpu.inst          962                       # number of ReadCleanReq accesses(hits+misses)
system.l2.ReadCleanReq_accesses::total            962                       # number of ReadCleanReq accesses(hits+misses)
system.l2.ReadCleanReq_miss_rate::.cpu.inst     0.943867                       # miss rate for ReadCleanReq accesses
system.l2.ReadCleanReq_miss_rate::total      0.943867                       # miss rate for ReadCleanReq accesses
system.l2.ReadCleanReq_avg_miss_latency::.cpu.inst 77765.418502                       # average ReadCleanReq miss latency
system.l2.ReadCleanReq_avg_miss_latency::total 77765.418502                       # average ReadCleanReq miss latency
system.l2.ReadCleanReq_mshr_misses::.cpu.inst          908                       # number of ReadCleanReq MSHR misses
system.l2.ReadCleanReq_mshr_misses::total          908                       # number of ReadCleanReq MSHR misses
system.l2.ReadCleanReq_mshr_miss_latency::.cpu.inst     61531000                       # number of ReadCleanReq MSHR miss cycles
system.l2.ReadCleanReq_mshr_miss_latency::total     61531000                       # number of ReadCleanReq MSHR miss cycles
system.l2.ReadCleanReq_mshr_miss_rate::.cpu.inst     0.943867                       # mshr miss rate for ReadCleanReq accesses
system.l2.ReadCleanReq_mshr_miss_rate::total     0.943867                       # mshr miss rate for ReadCleanReq accesses
system.l2.ReadCleanReq_avg_mshr_miss_latency::.cpu.inst 67765.418502                       # average ReadCleanReq mshr miss latency
system.l2.ReadCleanReq_avg_mshr_miss_latency::total 67765.418502                       # average ReadCleanReq mshr miss latency
system.l2.ReadSharedReq_hits::.cpu.data            54                       # number of ReadSharedReq hits
system.l2.ReadSharedReq_hits::total                54                       # number of ReadSharedReq hits
system.l2.ReadSharedReq_misses::.cpu.data          420                       # number of ReadSharedReq misses
system.l2.ReadSharedReq_misses::total             420                       # number of ReadSharedReq misses
system.l2.ReadSharedReq_miss_latency::.cpu.data     35393500                       # number of ReadSharedReq miss cycles
system.l2.ReadSharedReq_miss_latency::total     35393500                       # number of ReadSharedReq miss cycles
system.l2.ReadSharedReq_accesses::.cpu.data          474                       # number of ReadSharedReq accesses(hits+misses)
system.l2.ReadSharedReq_accesses::total           474                       # number of ReadSharedReq accesses(hits+misses)
system.l2.ReadSharedReq_miss_rate::.cpu.data     0.886076                       # miss rate for ReadSharedReq accesses
system.l2.ReadSharedReq_miss_rate::total     0.886076                       # miss rate for ReadSharedReq accesses
system.l2.ReadSharedReq_avg_miss_latency::.cpu.data 84270.238095                       # average ReadSharedReq miss latency
system.l2.ReadSharedReq_avg_miss_latency::total 84270.238095                       # average ReadSharedReq miss latency
system.l2.ReadSharedReq_mshr_hits::.cpu.data            2                       # number of ReadSharedReq MSHR hits
system.l2.ReadSharedReq_mshr_hits::total            2                       # number of ReadSharedReq MSHR hits
system.l2.ReadSharedReq_mshr_misses::.cpu.data          418                       # number of ReadSharedReq MSHR misses
system.l2.ReadSharedReq_mshr_misses::total          418                       # number of ReadSharedReq MSHR misses
system.l2.ReadSharedReq_mshr_miss_latency::.cpu.data     31062000                       # number of ReadSharedReq MSHR miss cycles
system.l2.ReadSharedReq_mshr_miss_latency::total     31062000                       # number of ReadSharedReq MSHR miss cycles
system.l2.ReadSharedReq_mshr_miss_rate::.cpu.data     0.881857                       # mshr miss rate for ReadSharedReq accesses
system.l2.ReadSharedReq_mshr_miss_rate::total     0.881857                       # mshr miss rate for ReadSharedReq accesses
system.l2.ReadSharedReq_avg_mshr_miss_latency::.cpu.data 74311.004785                       # average ReadSharedReq mshr miss latency
system.l2.ReadSharedReq_avg_mshr_miss_latency::total 74311.004785                       # average ReadSharedReq mshr miss latency
system.l2.InvalidateReq_misses::.cpu.data            1                       # number of InvalidateReq misses
system.l2.InvalidateReq_misses::total               1                       # number of InvalidateReq misses
system.l2.InvalidateReq_accesses::.cpu.data            1                       # number of InvalidateReq accesses(hits+misses)
system.l2.InvalidateReq_accesses::total             1                       # number of InvalidateReq accesses(hits+misses)
system.l2.InvalidateReq_miss_rate::.cpu.data            1                       # miss rate for InvalidateReq accesses
system.l2.InvalidateReq_miss_rate::total            1                       # miss rate for InvalidateReq accesses
system.l2.InvalidateReq_mshr_misses::.cpu.data            1                       # number of InvalidateReq MSHR misses
system.l2.InvalidateReq_mshr_misses::total            1                       # number of InvalidateReq MSHR misses
system.l2.InvalidateReq_mshr_miss_latency::.cpu.data        19500                       # number of InvalidateReq MSHR miss cycles
system.l2.InvalidateReq_mshr_miss_latency::total        19500                       # number of InvalidateReq MSHR miss cycles
system.l2.InvalidateReq_mshr_miss_rate::.cpu.data            1                       # mshr miss rate for InvalidateReq accesses
system.l2.InvalidateReq_mshr_miss_rate::total            1                       # mshr miss rate for InvalidateReq accesses
system.l2.InvalidateReq_avg_mshr_miss_latency::.cpu.data        19500                       # average InvalidateReq mshr miss latency
system.l2.InvalidateReq_avg_mshr_miss_latency::total        19500                       # average InvalidateReq mshr miss latency
system.l2.tags.pwrStateResidencyTicks::UNDEFINED 882981166500                       # Cumulative time (in ticks) in various power states
system.l2.tags.tagsinuse                 16334.528194                       # Cycle average of tags in use
system.l2.tags.total_refs                    21051464                       # Total number of references to valid blocks.
system.l2.tags.sampled_refs                  10527260                       # Sample count of references to valid blocks.
system.l2.tags.avg_refs                      1.999710                       # Average number of references to valid blocks.
system.l2.tags.warmup_cycle                     77000                       # Cycle when the warmup percentage was hit.
system.l2.tags.occ_blocks::.writebacks       0.235191                       # Average occupied blocks per requestor
system.l2.tags.occ_blocks::.cpu.inst         2.535589                       # Average occupied blocks per requestor
system.l2.tags.occ_blocks::.cpu.data     16331.757414                       # Average occupied blocks per requestor
system.l2.tags.occ_percent::.writebacks      0.000014                       # Average percentage of cache occupancy
system.l2.tags.occ_percent::.cpu.inst        0.000155                       # Average percentage of cache occupancy
system.l2.tags.occ_percent::.cpu.data        0.996811                       # Average percentage of cache occupancy
system.l2.tags.occ_percent::total            0.996980                       # Average percentage of cache occupancy
system.l2.tags.occ_task_id_blocks::1024         16384                       # Occupied blocks per task id
system.l2.tags.age_task_id_blocks_1024::0          120                       # Occupied blocks per task id
system.l2.tags.age_task_id_blocks_1024::1         1074                       # Occupied blocks per task id
system.l2.tags.age_task_id_blocks_1024::2        10763                       # Occupied blocks per task id
system.l2.tags.age_task_id_blocks_1024::3         4427                       # Occupied blocks per task id
system.l2.tags.occ_task_id_percent::1024            1                       # Percentage of cache occupancy per task id
system.l2.tags.tag_accesses                  52630252                       # Number of tag accesses
system.l2.tags.data_accesses                 52630252                       # Number of data accesses
system.cpu_voltage_domain.voltage                   1                       # Voltage in Volts
system.mem_ctrls.pwrStateResidencyTicks::UNDEFINED 882981166500                       # Cumulative time (in ticks) in various power states
system.mem_ctrls.bytes_read::.cpu.inst          29056                       # Number of bytes read from this memory
system.mem_ctrls.bytes_read::.cpu.data      336836352                       # Number of bytes read from this memory
system.mem_ctrls.bytes_read::total          336865408                       # Number of bytes read from this memory
system.mem_ctrls.bytes_inst_read::.cpu.inst        29056                       # Number of instructions bytes read from this memory
system.mem_ctrls.bytes_inst_read::total         29056                       # Number of instructions bytes read from this memory
system.mem_ctrls.bytes_written::.writebacks    336300000                       # Number of bytes written to this memory
system.mem_ctrls.bytes_written::total       336300000                       # Number of bytes written to this memory
system.mem_ctrls.num_reads::.cpu.inst             908                       # Number of read requests responded to by this memory
system.mem_ctrls.num_reads::.cpu.data        10526136                       # Number of read requests responded to by this memory
system.mem_ctrls.num_reads::total            10527044                       # Number of read requests responded to by this memory
system.mem_ctrls.num_writes::.writebacks     10509375                       # Number of write requests responded to by this memory
system.mem_ctrls.num_writes::total           10509375                       # Number of write requests responded to by this memory
system.mem_ctrls.bw_read::.cpu.inst             32907                       # Total read bandwidth from this memory (bytes/s)
system.mem_ctrls.bw_read::.cpu.data         381476259                       # Total read bandwidth from this memory (bytes/s)
system.mem_ctrls.bw_read::total             381509166                       # Total read bandwidth from this memory (bytes/s)
system.mem_ctrls.bw_inst_read::.cpu.inst        32907                       # Instruction read bandwidth from this memory (bytes/s)
system.mem_ctrls.bw_inst_read::total            32907                       # Instruction read bandwidth from this memory (bytes/s)
system.mem_ctrls.bw_write::.writebacks      380868826                       # Write bandwidth from this memory (bytes/s)
system.mem_ctrls.bw_write::total            380868826                       # Write bandwidth from this memory (bytes/s)
system.mem_ctrls.bw_total::.writebacks      380868826                       # Total bandwidth to/from this memory (bytes/s)
system.mem_ctrls.bw_total::.cpu.inst            32907                       # Total bandwidth to/from this memory (bytes/s)
system.mem_ctrls.bw_total::.cpu.data        381476259                       # Total bandwidth to/from this memory (bytes/s)
system.mem_ctrls.bw_total::total            762377991                       # Total bandwidth to/from this memory (bytes/s)
system.mem_ctrls.avgPriority_.writebacks::samples   5255325.00                       # Average QoS priority value for accepted requests
system.mem_ctrls.avgPriority_.cpu.inst::samples       908.00                       # Average QoS priority value for accepted requests
system.mem_ctrls.avgPriority_.cpu.data::samples  10526133.00                       # Average QoS priority value for accepted requests
system.mem_ctrls.priorityMinLatency      0.000000018750                       # per QoS priority minimum request to response latency (s)
system.mem_ctrls.priorityMaxLatency      0.005802754500                       # per QoS priority maximum request to response latency (s)
system.mem_ctrls.numReadWriteTurnArounds       328453                       # Number of turnarounds from READ to WRITE
system.mem_ctrls.numWriteReadTurnArounds       328453                       # Number of turnarounds from WRITE to READ
system.mem_ctrls.numStayReadState            31441710                       # Number of times bus staying in READ state
system.mem_ctrls.numStayWriteState            4946797                       # Number of times bus staying in WRITE state
system.mem_ctrls.readReqs                    10527044                       # Number of read requests accepted
system.mem_ctrls.writeReqs                   10509375                       # Number of write requests accepted
system.mem_ctrls.readBursts                  10527044                       # Number of DRAM read bursts, including those serviced by the write queue
system.mem_ctrls.writeBursts                 10509375                       # Number of DRAM write bursts, including those merged in the write queue
system.mem_ctrls.servicedByWrQ                      3                       # Number of DRAM read bursts serviced by the write queue
system.mem_ctrls.mergedWrBursts               5254050                       # Number of DRAM write bursts merged with an existing one
system.mem_ctrls.neitherReadNorWriteReqs            0                       # Number of requests that are neither read nor write
system.mem_ctrls.perBankRdBursts::0            657997                       # Per bank write bursts
system.mem_ctrls.perBankRdBursts::1            658032                       # Per bank write bursts
system.mem_ctrls.perBankRdBursts::2            658122                       # Per bank write bursts
system.mem_ctrls.perBankRdBursts::3            658095                       # Per bank write bursts
system.mem_ctrls.perBankRdBursts::4            658024                       # Per bank write bursts
system.mem_ctrls.perBankRdBursts::5            658085                       # Per bank write bursts
system.mem_ctrls.perBankRdBursts::6            658118                       # Per bank write bursts
system.mem_ctrls.perBankRdBursts::7            657849                       # Per bank write bursts
system.mem_ctrls.perBankRdBursts::8            657767                       # Per bank write bursts
system.mem_ctrls.perBankRdBursts::9            657718                       # Per bank write bursts
system.mem_ctrls.perBankRdBursts::10           657626                       # Per bank write bursts
system.mem_ctrls.perBankRdBursts::11           657988                       # Per bank write bursts
system.mem_ctrls.perBankRdBursts::12           657997                       # Per bank write bursts
system.mem_ctrls.perBankRdBursts::13           658001                       # Per bank write bursts
system.mem_ctrls.perBankRdBursts::14           657903                       # Per bank write bursts
system.mem_ctrls.perBankRdBursts::15           657719                       # Per bank write bursts
system.mem_ctrls.perBankWrBursts::0            328452                       # Per bank write bursts
system.mem_ctrls.perBankWrBursts::1            328511                       # Per bank write bursts
system.mem_ctrls.perBankWrBursts::2            328581                       # Per bank write bursts
system.mem_ctrls.perBankWrBursts::3            328555                       # Per bank write bursts
system.mem_ctrls.perBankWrBursts::4            328505                       # Per bank write bursts
system.mem_ctrls.perBankWrBursts::5            328520                       # Per bank write bursts
system.mem_ctrls.perBankWrBursts::6            328543                       # Per bank write bursts
system.mem_ctrls.perBankWrBursts::7            328421                       # Per bank write bursts
system.mem_ctrls.perBankWrBursts::8            328351                       # Per bank write bursts
system.mem_ctrls.perBankWrBursts::9            328332                       # Per bank write bursts
system.mem_ctrls.perBankWrBursts::10           328281                       # Per bank write bursts
system.mem_ctrls.perBankWrBursts::11           328508                       # Per bank write bursts
system.mem_ctrls.perBankWrBursts::12           328492                       # Per bank write bursts
system.mem_ctrls.perBankWrBursts::13           328472                       # Per bank write bursts
system.mem_ctrls.perBankWrBursts::14           328423                       # Per bank write bursts
system.mem_ctrls.perBankWrBursts::15           328360                       # Per bank write bursts
system.mem_ctrls.avgRdQLen                       1.00                       # Average read queue length when enqueuing
system.mem_ctrls.avgWrQLen                      25.80                       # Average write queue length when enqueuing
system.mem_ctrls.totQLat                  80196295250                       # Total ticks spent queuing
system.mem_ctrls.totBusLat                52635205000                       # Total ticks spent in databus transfers
system.mem_ctrls.totMemAccLat            277578314000                       # Total ticks spent from burst creation until serviced by the DRAM
system.mem_ctrls.avgQLat                      7618.12                       # Average queueing delay per DRAM burst
system.mem_ctrls.avgBusLat                    5000.00                       # Average bus latency per DRAM burst
system.mem_ctrls.avgMemAccLat                26368.12                       # Average memory access latency per DRAM burst
system.mem_ctrls.numRdRetry                         0                       # Number of times read queue was full causing retry
system.mem_ctrls.numWrRetry                         0                       # Number of times write queue was full causing retry
system.mem_ctrls.readRowHits                  9725399                       # Number of row buffer hits during reads
system.mem_ctrls.writeRowHits                 4875619                       # Number of row buffer hits during writes
system.mem_ctrls.readRowHitRate                 92.38                       # Row buffer hit rate for reads
system.mem_ctrls.writeRowHitRate                92.77                       # Row buffer hit rate for writes
system.mem_ctrls.readPktSize::0                     0                       # Read request sizes (log2)
system.mem_ctrls.readPktSize::1                     0                       # Read request sizes (log2)
system.mem_ctrls.readPktSize::2                     0                       # Read request sizes (log2)
system.mem_ctrls.readPktSize::3                     0                       # Read request sizes (log2)
system.mem_ctrls.readPktSize::4                     0                       # Read request sizes (log2)
system.mem_ctrls.readPktSize::5              10527044                       # Read request sizes (log2)
system.mem_ctrls.readPktSize::6                     0                       # Read request sizes (log2)
system.mem_ctrls.writePktSize::0                    0                       # Write request sizes (log2)
system.mem_ctrls.writePktSize::1                    0                       # Write request sizes (log2)
system.mem_ctrls.writePktSize::2                    0                       # Write request sizes (log2)
system.mem_ctrls.writePktSize::3                    0                       # Write request sizes (log2)
system.mem_ctrls.writePktSize::4                    0                       # Write request sizes (log2)
system.mem_ctrls.writePktSize::5             10509375                       # Write request sizes (log2)
system.mem_ctrls.writePktSize::6                    0                       # Write request sizes (log2)
system.mem_ctrls.rdQLenPdf::0                10525595                       # What read queue length does an incoming req see
system.mem_ctrls.rdQLenPdf::1                    1396                       # What read queue length does an incoming req see
system.mem_ctrls.rdQLenPdf::2                      46                       # What read queue length does an incoming req see
system.mem_ctrls.rdQLenPdf::3                       4                       # What read queue length does an incoming req see
system.mem_ctrls.rdQLenPdf::4                       0                       # What read queue length does an incoming req see
system.mem_ctrls.rdQLenPdf::5                       0                       # What read queue length does an incoming req see
system.mem_ctrls.rdQLenPdf::6                       0                       # What read queue length does an incoming req see
system.mem_ctrls.rdQLenPdf::7                       0                       # What read queue length does an incoming req see
system.mem_ctrls.rdQLenPdf::8                       0                       # What read queue length does an incoming req see
system.mem_ctrls.rdQLenPdf::9                       0                       # What read queue length does an incoming req see
system.mem_ctrls.rdQLenPdf::10                      0                       # What read queue length does an incoming req see
system.mem_ctrls.rdQLenPdf::11                      0                       # What read queue length does an incoming req see
system.mem_ctrls.rdQLenPdf::12                      0                       # What read queue length does an incoming req see
system.mem_ctrls.rdQLenPdf::13                      0                       # What read queue length does an incoming req see
system.mem_ctrls.rdQLenPdf::14                      0                       # What read queue length does an incoming req see
system.mem_ctrls.rdQLenPdf::15                      0                       # What read queue length does an incoming req see
system.mem_ctrls.rdQLenPdf::16                      0                       # What read queue length does an incoming req see
system.mem_ctrls.rdQLenPdf::17                      0                       # What read queue length does an incoming req see
system.mem_ctrls.rdQLenPdf::18                      0                       # What read queue length does an incoming req see
system.mem_ctrls.rdQLenPdf::19                      0                       # What read queue length does an incoming req see
system.mem_ctrls.rdQLenPdf::20                      0                       # What read queue length does an incoming req see
system.mem_ctrls.rdQLenPdf::21                      0                       # What read queue length does an incoming req see
system.mem_ctrls.rdQLenPdf::22                      0                       # What read queue length does an incoming req see
system.mem_ctrls.rdQLenPdf::23                      0                       # What read queue length does an incoming req see
system.mem_ctrls.rdQLenPdf::24                      0                       # What read queue length does an incoming req see
system.mem_ctrls.rdQLenPdf::25                      0                       # What read queue length does an incoming req see
system.mem_ctrls.rdQLenPdf::26                      0                       # What read queue length does an incoming req see
system.mem_ctrls.rdQLenPdf::27                      0                       # What read queue length does an incoming req see
system.mem_ctrls.rdQLenPdf::28                      0                       # What read queue length does an incoming req see
system.mem_ctrls.rdQLenPdf::29                      0                       # What read queue length does an incoming req see
system.mem_ctrls.rdQLenPdf::30                      0                       # What read queue length does an incoming req see
system.mem_ctrls.rdQLenPdf::31                      0                       # What read queue length does an incoming req see
system.mem_ctrls.wrQLenPdf::0                       1                       # What write queue length does an incoming req see
system.mem_ctrls.wrQLenPdf::1                       1                       # What write queue length does an incoming req see
system.mem_ctrls.wrQLenPdf::2                       1                       # What write queue length does an incoming req see
system.mem_ctrls.wrQLenPdf::3                       1                       # What write queue length does an incoming req see
system.mem_ctrls.wrQLenPdf::4                       1                       # What write queue length does an incoming req see
system.mem_ctrls.wrQLenPdf::5                       1                       # What write queue length does an incoming req see
system.mem_ctrls.wrQLenPdf::6                       1                       # What write queue length does an incoming req see
system.mem_ctrls.wrQLenPdf::7                       1                       # What write queue length does an incoming req see
system.mem_ctrls.wrQLenPdf::8                       1                       # What write queue length does an incoming req see
system.mem_ctrls.wrQLenPdf::9                       1                       # What write queue length does an incoming req see
system.mem_ctrls.wrQLenPdf::10                      1                       # What write queue length does an incoming req see
system.mem_ctrls.wrQLenPdf::11                      1                       # What write queue length does an incoming req see
system.mem_ctrls.wrQLenPdf::12                      1                       # What write queue length does an incoming req see
system.mem_ctrls.wrQLenPdf::13                      1                       # What write queue length does an incoming req see
system.mem_ctrls.wrQLenPdf::14                      1                       # What write queue length does an incoming req see
system.mem_ctrls.wrQLenPdf::15                     27                       # What write queue length does an incoming req see
system.mem_ctrls.wrQLenPdf::16                     29                       # What write queue length does an incoming req see
system.mem_ctrls.wrQLenPdf::17                 328448                       # What write queue length does an incoming req see
system.mem_ctrls.wrQLenPdf::18                 328456                       # What write queue length does an incoming req see
system.mem_ctrls.wrQLenPdf::19                 328453                       # What write queue length does an incoming req see
system.mem_ctrls.wrQLenPdf::20                 328453                       # What write queue length does an incoming req see
system.mem_ctrls.wrQLenPdf::21                 328453                       # What write queue length does an incoming req see
system.mem_ctrls.wrQLenPdf::22                 328454                       # What write queue length does an incoming req see
system.mem_ctrls.wrQLenPdf::23                 328453                       # What write queue length does an incoming req see
system.mem_ctrls.wrQLenPdf::24                 328454                       # What write queue length does an incoming req see
system.mem_ctrls.wrQLenPdf::25                 328456                       # What write queue length does an incoming req see
system.mem_ctrls.wrQLenPdf::26                 328453                       # What write queue length does an incoming req see
system.mem_ctrls.wrQLenPdf::27                 328454                       # What write queue length does an incoming req see
system.mem_ctrls.wrQLenPdf::28                 328454                       # What write queue length does an incoming req see
system.mem_ctrls.wrQLenPdf::29                 328454                       # What write queue length does an incoming req see
system.mem_ctrls.wrQLenPdf::30                 328453                       # What write queue length does an incoming req see
system.mem_ctrls.wrQLenPdf::31                 328453                       # What write queue length does an incoming req see
system.mem_ctrls.wrQLenPdf::32                 328453                       # What write queue length does an incoming req see
system.mem_ctrls.wrQLenPdf::33                      0                       # What write queue length does an incoming req see
system.mem_ctrls.wrQLenPdf::34                      0                       # What write queue length does an incoming req see
system.mem_ctrls.wrQLenPdf::35                      0                       # What write queue length does an incoming req see
system.mem_ctrls.wrQLenPdf::36                      0                       # What write queue length does an incoming req see
system.mem_ctrls.wrQLenPdf::37                      0                       # What write queue length does an incoming req see
system.mem_ctrls.wrQLenPdf::38                      0                       # What write queue length does an incoming req see
system.mem_ctrls.wrQLenPdf::39                      0                       # What write queue length does an incoming req see
system.mem_ctrls.wrQLenPdf::40                      0                       # What write queue length does an incoming req see
system.mem_ctrls.wrQLenPdf::41                      0                       # What write queue length does an incoming req see
system.mem_ctrls.wrQLenPdf::42                      0                       # What write queue length does an incoming req see
system.mem_ctrls.wrQLenPdf::43                      0                       # What write queue length does an incoming req see
system.mem_ctrls.wrQLenPdf::44                      0                       # What write queue length does an incoming req see
system.mem_ctrls.wrQLenPdf::45                      0                       # What write queue length does an incoming req see
system.mem_ctrls.wrQLenPdf::46                      0                       # What write queue length does an incoming req see
system.mem_ctrls.wrQLenPdf::47                      0                       # What write queue length does an incoming req see
system.mem_ctrls.wrQLenPdf::48                      0                       # What write queue length does an incoming req see
system.mem_ctrls.wrQLenPdf::49                      0                       # What write queue length does an incoming req see
system.mem_ctrls.wrQLenPdf::50                      0                       # What write queue length does an incoming req see
system.mem_ctrls.wrQLenPdf::51                      0                       # What write queue length does an incoming req see
system.mem_ctrls.wrQLenPdf::52                      0                       # What write queue length does an incoming req see
system.mem_ctrls.wrQLenPdf::53                      0                       # What write queue length does an incoming req see
system.mem_ctrls.wrQLenPdf::54                      0                       # What write queue length does an incoming req see
system.mem_ctrls.wrQLenPdf::55                      0                       # What write queue length does an incoming req see
system.mem_ctrls.wrQLenPdf::56                      0                       # What write queue length does an incoming req see
system.mem_ctrls.wrQLenPdf::57                      0                       # What write queue length does an incoming req see
system.mem_ctrls.wrQLenPdf::58                      0                       # What write queue length does an incoming req see
system.mem_ctrls.wrQLenPdf::59                      0                       # What write queue length does an incoming req see
system.mem_ctrls.wrQLenPdf::60                      0                       # What write queue length does an incoming req see
system.mem_ctrls.wrQLenPdf::61                      0                       # What write queue length does an incoming req see
system.mem_ctrls.wrQLenPdf::62                      0                       # What write queue length does an incoming req see
system.mem_ctrls.wrQLenPdf::63                      0                       # What write queue length does an incoming req see
system.mem_ctrls.bytesPerActivate::samples      1181329                       # Bytes accessed per row activation
system.mem_ctrls.bytesPerActivate::mean    855.028599                       # Bytes accessed per row activation
system.mem_ctrls.bytesPerActivate::gmean   755.480936                       # Bytes accessed per row activation
system.mem_ctrls.bytesPerActivate::stdev   293.956803                       # Bytes accessed per row activation
system.mem_ctrls.bytesPerActivate::0-127        17492      1.48%      1.48% # Bytes accessed per row activation
system.mem_ctrls.bytesPerActivate::128-255        81664      6.91%      8.39% # Bytes accessed per row activation
system.mem_ctrls.bytesPerActivate::256-383        47636      4.03%     12.43% # Bytes accessed per row activation
[...]
system.cpu.icache.tags.occ_blocks::.cpu.inst   636.134750                       # Average occupied blocks per requestor
system.cpu.icache.tags.occ_percent::.cpu.inst     0.621225                       # Average percentage of cache occupancy
system.cpu.icache.tags.occ_percent::total     0.621225                       # Average percentage of cache occupancy
system.cpu.icache.tags.occ_task_id_blocks::1024          732                       # Occupied blocks per task id
system.cpu.icache.tags.age_task_id_blocks_1024::4          732                       # Occupied blocks per task id
system.cpu.icache.tags.occ_task_id_percent::1024     0.714844                       # Percentage of cache occupancy per task id
system.cpu.icache.tags.tag_accesses          85183318                       # Number of tag accesses
system.cpu.icache.tags.data_accesses         85183318                       # Number of data accesses
system.cpu.dtb.walker.pwrStateResidencyTicks::UNDEFINED 882981166500                       # Cumulative time (in ticks) in various power states
system.cpu.dtb.stage2_mmu.stage2_tlb.walker.pwrStateResidencyTicks::UNDEFINED 882981166500                       # Cumulative time (in ticks) in various power states
system.cpu.dcache.pwrStateResidencyTicks::UNDEFINED 882981166500                       # Cumulative time (in ticks) in various power states
system.cpu.dcache.demand_hits::.cpu.data     65333765                       # number of demand (read+write) hits
system.cpu.dcache.demand_hits::total         65333765                       # number of demand (read+write) hits
system.cpu.dcache.overall_hits::.cpu.data     65333794                       # number of overall hits
system.cpu.dcache.overall_hits::total        65333794                       # number of overall hits
system.cpu.dcache.demand_misses::.cpu.data     21047020                       # number of demand (read+write) misses
system.cpu.dcache.demand_misses::total       21047020                       # number of demand (read+write) misses
system.cpu.dcache.overall_misses::.cpu.data     21047062                       # number of overall misses
system.cpu.dcache.overall_misses::total      21047062                       # number of overall misses
system.cpu.dcache.demand_miss_latency::.cpu.data 1675983899999                       # number of demand (read+write) miss cycles
system.cpu.dcache.demand_miss_latency::total 1675983899999                       # number of demand (read+write) miss cycles
system.cpu.dcache.overall_miss_latency::.cpu.data 1675983899999                       # number of overall miss cycles
system.cpu.dcache.overall_miss_latency::total 1675983899999                       # number of overall miss cycles
system.cpu.dcache.demand_accesses::.cpu.data     86380785                       # number of demand (read+write) accesses
system.cpu.dcache.demand_accesses::total     86380785                       # number of demand (read+write) accesses
system.cpu.dcache.overall_accesses::.cpu.data     86380856                       # number of overall (read+write) accesses
system.cpu.dcache.overall_accesses::total     86380856                       # number of overall (read+write) accesses
system.cpu.dcache.demand_miss_rate::.cpu.data     0.243654                       # miss rate for demand accesses
system.cpu.dcache.demand_miss_rate::total     0.243654                       # miss rate for demand accesses
system.cpu.dcache.overall_miss_rate::.cpu.data     0.243654                       # miss rate for overall accesses
system.cpu.dcache.overall_miss_rate::total     0.243654                       # miss rate for overall accesses
system.cpu.dcache.demand_avg_miss_latency::.cpu.data 79630.460749                       # average overall miss latency
system.cpu.dcache.demand_avg_miss_latency::total 79630.460749                       # average overall miss latency
system.cpu.dcache.overall_avg_miss_latency::.cpu.data 79630.301844                       # average overall miss latency
system.cpu.dcache.overall_avg_miss_latency::total 79630.301844                       # average overall miss latency
system.cpu.dcache.blocked_cycles::no_mshrs          125                       # number of cycles access was blocked
system.cpu.dcache.blocked_cycles::no_targets            0                       # number of cycles access was blocked
system.cpu.dcache.blocked::no_mshrs                 2                       # number of cycles access was blocked
system.cpu.dcache.blocked::no_targets               0                       # number of cycles access was blocked
system.cpu.dcache.avg_blocked_cycles::no_mshrs    62.500000                       # average number of cycles each access was blocked
system.cpu.dcache.avg_blocked_cycles::no_targets          nan                       # average number of cycles each access was blocked
system.cpu.dcache.writebacks::.writebacks     10523739                       # number of writebacks
system.cpu.dcache.writebacks::total          10523739                       # number of writebacks
system.cpu.dcache.demand_mshr_hits::.cpu.data     10520855                       # number of demand (read+write) MSHR hits
system.cpu.dcache.demand_mshr_hits::total     10520855                       # number of demand (read+write) MSHR hits
system.cpu.dcache.overall_mshr_hits::.cpu.data     10520855                       # number of overall MSHR hits
system.cpu.dcache.overall_mshr_hits::total     10520855                       # number of overall MSHR hits
system.cpu.dcache.demand_mshr_misses::.cpu.data     10526165                       # number of demand (read+write) MSHR misses
system.cpu.dcache.demand_mshr_misses::total     10526165                       # number of demand (read+write) MSHR misses
system.cpu.dcache.overall_mshr_misses::.cpu.data     10526207                       # number of overall MSHR misses
system.cpu.dcache.overall_mshr_misses::total     10526207                       # number of overall MSHR misses
system.cpu.dcache.demand_mshr_miss_latency::.cpu.data 827687394499                       # number of demand (read+write) MSHR miss cycles
system.cpu.dcache.demand_mshr_miss_latency::total 827687394499                       # number of demand (read+write) MSHR miss cycles
system.cpu.dcache.overall_mshr_miss_latency::.cpu.data 827691908999                       # number of overall MSHR miss cycles
system.cpu.dcache.overall_mshr_miss_latency::total 827691908999                       # number of overall MSHR miss cycles
system.cpu.dcache.demand_mshr_miss_rate::.cpu.data     0.121858                       # mshr miss rate for demand accesses
system.cpu.dcache.demand_mshr_miss_rate::total     0.121858                       # mshr miss rate for demand accesses
system.cpu.dcache.overall_mshr_miss_rate::.cpu.data     0.121858                       # mshr miss rate for overall accesses
system.cpu.dcache.overall_mshr_miss_rate::total     0.121858                       # mshr miss rate for overall accesses
system.cpu.dcache.demand_avg_mshr_miss_latency::.cpu.data 78631.428873                       # average overall mshr miss latency
system.cpu.dcache.demand_avg_mshr_miss_latency::total 78631.428873                       # average overall mshr miss latency
system.cpu.dcache.overall_avg_mshr_miss_latency::.cpu.data 78631.544012                       # average overall mshr miss latency
system.cpu.dcache.overall_avg_mshr_miss_latency::total 78631.544012                       # average overall mshr miss latency
system.cpu.dcache.replacements               10524159                       # number of replacements
system.cpu.dcache.ReadReq_hits::.cpu.data      2043691                       # number of ReadReq hits
system.cpu.dcache.ReadReq_hits::total         2043691                       # number of ReadReq hits
system.cpu.dcache.ReadReq_misses::.cpu.data          450                       # number of ReadReq misses
system.cpu.dcache.ReadReq_misses::total           450                       # number of ReadReq misses
system.cpu.dcache.ReadReq_miss_latency::.cpu.data     34394000                       # number of ReadReq miss cycles
system.cpu.dcache.ReadReq_miss_latency::total     34394000                       # number of ReadReq miss cycles
system.cpu.dcache.ReadReq_accesses::.cpu.data      2044141                       # number of ReadReq accesses(hits+misses)
system.cpu.dcache.ReadReq_accesses::total      2044141                       # number of ReadReq accesses(hits+misses)
system.cpu.dcache.ReadReq_miss_rate::.cpu.data     0.000220                       # miss rate for ReadReq accesses
system.cpu.dcache.ReadReq_miss_rate::total     0.000220                       # miss rate for ReadReq accesses
system.cpu.dcache.ReadReq_avg_miss_latency::.cpu.data 76431.111111                       # average ReadReq miss latency
system.cpu.dcache.ReadReq_avg_miss_latency::total 76431.111111                       # average ReadReq miss latency
system.cpu.dcache.ReadReq_mshr_hits::.cpu.data           19                       # number of ReadReq MSHR hits
system.cpu.dcache.ReadReq_mshr_hits::total           19                       # number of ReadReq MSHR hits
system.cpu.dcache.ReadReq_mshr_misses::.cpu.data          431                       # number of ReadReq MSHR misses
system.cpu.dcache.ReadReq_mshr_misses::total          431                       # number of ReadReq MSHR misses
system.cpu.dcache.ReadReq_mshr_miss_latency::.cpu.data     32098000                       # number of ReadReq MSHR miss cycles
system.cpu.dcache.ReadReq_mshr_miss_latency::total     32098000                       # number of ReadReq MSHR miss cycles
system.cpu.dcache.ReadReq_mshr_miss_rate::.cpu.data     0.000211                       # mshr miss rate for ReadReq accesses
system.cpu.dcache.ReadReq_mshr_miss_rate::total     0.000211                       # mshr miss rate for ReadReq accesses
system.cpu.dcache.ReadReq_avg_mshr_miss_latency::.cpu.data 74473.317865                       # average ReadReq mshr miss latency
system.cpu.dcache.ReadReq_avg_mshr_miss_latency::total 74473.317865                       # average ReadReq mshr miss latency
system.cpu.dcache.WriteReq_hits::.cpu.data     63290074                       # number of WriteReq hits
system.cpu.dcache.WriteReq_hits::total       63290074                       # number of WriteReq hits
system.cpu.dcache.WriteReq_misses::.cpu.data     21046570                       # number of WriteReq misses
system.cpu.dcache.WriteReq_misses::total     21046570                       # number of WriteReq misses
system.cpu.dcache.WriteReq_miss_latency::.cpu.data 1675949505999                       # number of WriteReq miss cycles
system.cpu.dcache.WriteReq_miss_latency::total 1675949505999                       # number of WriteReq miss cycles
system.cpu.dcache.WriteReq_accesses::.cpu.data     84336644                       # number of WriteReq accesses(hits+misses)
system.cpu.dcache.WriteReq_accesses::total     84336644                       # number of WriteReq accesses(hits+misses)
system.cpu.dcache.WriteReq_miss_rate::.cpu.data     0.249554                       # miss rate for WriteReq accesses
system.cpu.dcache.WriteReq_miss_rate::total     0.249554                       # miss rate for WriteReq accesses
system.cpu.dcache.WriteReq_avg_miss_latency::.cpu.data 79630.529155                       # average WriteReq miss latency
system.cpu.dcache.WriteReq_avg_miss_latency::total 79630.529155                       # average WriteReq miss latency
system.cpu.dcache.WriteReq_mshr_hits::.cpu.data     10520836                       # number of WriteReq MSHR hits
system.cpu.dcache.WriteReq_mshr_hits::total     10520836                       # number of WriteReq MSHR hits
system.cpu.dcache.WriteReq_mshr_misses::.cpu.data     10525734                       # number of WriteReq MSHR misses
system.cpu.dcache.WriteReq_mshr_misses::total     10525734                       # number of WriteReq MSHR misses
system.cpu.dcache.WriteReq_mshr_miss_latency::.cpu.data 827655296499                       # number of WriteReq MSHR miss cycles
system.cpu.dcache.WriteReq_mshr_miss_latency::total 827655296499                       # number of WriteReq MSHR miss cycles
system.cpu.dcache.WriteReq_mshr_miss_rate::.cpu.data     0.124806                       # mshr miss rate for WriteReq accesses
system.cpu.dcache.WriteReq_mshr_miss_rate::total     0.124806                       # mshr miss rate for WriteReq accesses
system.cpu.dcache.WriteReq_avg_mshr_miss_latency::.cpu.data 78631.599136                       # average WriteReq mshr miss latency
system.cpu.dcache.WriteReq_avg_mshr_miss_latency::total 78631.599136                       # average WriteReq mshr miss latency
system.cpu.dcache.SoftPFReq_hits::.cpu.data           29                       # number of SoftPFReq hits
system.cpu.dcache.SoftPFReq_hits::total            29                       # number of SoftPFReq hits
system.cpu.dcache.SoftPFReq_misses::.cpu.data           42                       # number of SoftPFReq misses
system.cpu.dcache.SoftPFReq_misses::total           42                       # number of SoftPFReq misses
system.cpu.dcache.SoftPFReq_accesses::.cpu.data           71                       # number of SoftPFReq accesses(hits+misses)
system.cpu.dcache.SoftPFReq_accesses::total           71                       # number of SoftPFReq accesses(hits+misses)
system.cpu.dcache.SoftPFReq_miss_rate::.cpu.data     0.591549                       # miss rate for SoftPFReq accesses
system.cpu.dcache.SoftPFReq_miss_rate::total     0.591549                       # miss rate for SoftPFReq accesses
system.cpu.dcache.SoftPFReq_mshr_misses::.cpu.data           42                       # number of SoftPFReq MSHR misses
system.cpu.dcache.SoftPFReq_mshr_misses::total           42                       # number of SoftPFReq MSHR misses
system.cpu.dcache.SoftPFReq_mshr_miss_latency::.cpu.data      4514500                       # number of SoftPFReq MSHR miss cycles
system.cpu.dcache.SoftPFReq_mshr_miss_latency::total      4514500                       # number of SoftPFReq MSHR miss cycles
system.cpu.dcache.SoftPFReq_mshr_miss_rate::.cpu.data     0.591549                       # mshr miss rate for SoftPFReq accesses
system.cpu.dcache.SoftPFReq_mshr_miss_rate::total     0.591549                       # mshr miss rate for SoftPFReq accesses
system.cpu.dcache.SoftPFReq_avg_mshr_miss_latency::.cpu.data 107488.095238                       # average SoftPFReq mshr miss latency
system.cpu.dcache.SoftPFReq_avg_mshr_miss_latency::total 107488.095238                       # average SoftPFReq mshr miss latency
system.cpu.dcache.LoadLockedReq_hits::.cpu.data           33                       # number of LoadLockedReq hits
system.cpu.dcache.LoadLockedReq_hits::total           33                       # number of LoadLockedReq hits
system.cpu.dcache.LoadLockedReq_misses::.cpu.data            1                       # number of LoadLockedReq misses
system.cpu.dcache.LoadLockedReq_misses::total            1                       # number of LoadLockedReq misses
system.cpu.dcache.LoadLockedReq_miss_latency::.cpu.data        86500                       # number of LoadLockedReq miss cycles
system.cpu.dcache.LoadLockedReq_miss_latency::total        86500                       # number of LoadLockedReq miss cycles
system.cpu.dcache.LoadLockedReq_accesses::.cpu.data           34                       # number of LoadLockedReq accesses(hits+misses)
system.cpu.dcache.LoadLockedReq_accesses::total           34                       # number of LoadLockedReq accesses(hits+misses)
system.cpu.dcache.LoadLockedReq_miss_rate::.cpu.data     0.029412                       # miss rate for LoadLockedReq accesses
system.cpu.dcache.LoadLockedReq_miss_rate::total     0.029412                       # miss rate for LoadLockedReq accesses
system.cpu.dcache.LoadLockedReq_avg_miss_latency::.cpu.data        86500                       # average LoadLockedReq miss latency
system.cpu.dcache.LoadLockedReq_avg_miss_latency::total        86500                       # average LoadLockedReq miss latency
system.cpu.dcache.LoadLockedReq_mshr_misses::.cpu.data            1                       # number of LoadLockedReq MSHR misses
system.cpu.dcache.LoadLockedReq_mshr_misses::total            1                       # number of LoadLockedReq MSHR misses
system.cpu.dcache.LoadLockedReq_mshr_miss_latency::.cpu.data        85500                       # number of LoadLockedReq MSHR miss cycles
system.cpu.dcache.LoadLockedReq_mshr_miss_latency::total        85500                       # number of LoadLockedReq MSHR miss cycles
system.cpu.dcache.LoadLockedReq_mshr_miss_rate::.cpu.data     0.029412                       # mshr miss rate for LoadLockedReq accesses
system.cpu.dcache.LoadLockedReq_mshr_miss_rate::total     0.029412                       # mshr miss rate for LoadLockedReq accesses
system.cpu.dcache.LoadLockedReq_avg_mshr_miss_latency::.cpu.data        85500                       # average LoadLockedReq mshr miss latency
system.cpu.dcache.LoadLockedReq_avg_mshr_miss_latency::total        85500                       # average LoadLockedReq mshr miss latency
system.cpu.dcache.StoreCondReq_hits::.cpu.data           34                       # number of StoreCondReq hits
system.cpu.dcache.StoreCondReq_hits::total           34                       # number of StoreCondReq hits
system.cpu.dcache.StoreCondReq_accesses::.cpu.data           34                       # number of StoreCondReq accesses(hits+misses)
system.cpu.dcache.StoreCondReq_accesses::total           34                       # number of StoreCondReq accesses(hits+misses)
system.cpu.dcache.tags.pwrStateResidencyTicks::UNDEFINED 882981166500                       # Cumulative time (in ticks) in various power states
system.cpu.dcache.tags.tagsinuse          2047.289368                       # Cycle average of tags in use
system.cpu.dcache.tags.total_refs            75860068                       # Total number of references to valid blocks.
system.cpu.dcache.tags.sampled_refs          10526207                       # Sample count of references to valid blocks.
system.cpu.dcache.tags.avg_refs              7.206781                       # Average number of references to valid blocks.
system.cpu.dcache.tags.warmup_cycle            176500                       # Cycle when the warmup percentage was hit.
system.cpu.dcache.tags.occ_blocks::.cpu.data  2047.289368                       # Average occupied blocks per requestor
system.cpu.dcache.tags.occ_percent::.cpu.data     0.999653                       # Average percentage of cache occupancy
system.cpu.dcache.tags.occ_percent::total     0.999653                       # Average percentage of cache occupancy
system.cpu.dcache.tags.occ_task_id_blocks::1024         2048                       # Occupied blocks per task id
system.cpu.dcache.tags.age_task_id_blocks_1024::0          120                       # Occupied blocks per task id
system.cpu.dcache.tags.age_task_id_blocks_1024::1         1074                       # Occupied blocks per task id
system.cpu.dcache.tags.age_task_id_blocks_1024::2          854                       # Occupied blocks per task id
system.cpu.dcache.tags.occ_task_id_percent::1024            1                       # Percentage of cache occupancy per task id
system.cpu.dcache.tags.tag_accesses         183288055                       # Number of tag accesses
system.cpu.dcache.tags.data_accesses        183288055                       # Number of data accesses
system.cpu.itb.walker.pwrStateResidencyTicks::UNDEFINED 882981166500                       # Cumulative time (in ticks) in various power states
system.cpu.itb.stage2_mmu.stage2_tlb.walker.pwrStateResidencyTicks::UNDEFINED 882981166500                       # Cumulative time (in ticks) in various power states

---------- End Simulation Statistics   ----------
