
---------- Begin Simulation Statistics ----------
final_tick                                84626838500                       # Number of ticks from beginning of simulation (restored from checkpoints and never reset)
host_inst_rate                                 378434                       # Simulator instruction rate (inst/s)
host_mem_usage                                 684080                       # Number of bytes of host memory used
host_op_rate                                   379177                       # Simulator op (including micro ops) rate (op/s)
host_seconds                                   264.25                       # Real time elapsed on the host
host_tick_rate                              320256693                       # Simulator tick rate (ticks/s)
sim_freq                                 1000000000000                       # Frequency of simulated ticks
sim_insts                                   100000001                       # Number of instructions simulated
sim_ops                                     100196363                       # Number of ops (including micro ops) simulated
sim_seconds                                  0.084627                       # Number of seconds simulated
sim_ticks                                 84626838500                       # Number of ticks simulated
system.cpu.branchPred.BTBCorrect                    0                       # Number of correct BTB predictions (this stat may not work properly.
system.cpu.branchPred.BTBHitPct             99.616957                       # BTB Hit Percentage
system.cpu.branchPred.BTBHits                 2095623                       # Number of BTB hits
system.cpu.branchPred.BTBLookups              2103681                       # Number of BTB lookups
system.cpu.branchPred.RASInCorrect                  5                       # Number of incorrect RAS predictions.
system.cpu.branchPred.condIncorrect             81389                       # Number of conditional branches incorrect
system.cpu.branchPred.condPredicted           3728111                       # Number of conditional branches predicted
system.cpu.branchPred.indirectHits                292                       # Number of indirect target hits.
system.cpu.branchPred.indirectLookups             998                       # Number of indirect predictor lookups.
system.cpu.branchPred.indirectMisses              706                       # Number of indirect misses.
system.cpu.branchPred.lookups                 4478226                       # Number of BP lookups
system.cpu.branchPred.usedRAS                   65356                       # Number of times the RAS was used to get a target.
system.cpu.branchPredindirectMispredicted          168                       # Number of mispredicted indirect branches.
system.cpu.committedInsts                   100000001                       # Number of instructions committed
system.cpu.committedOps                     100196363                       # Number of ops (including micro ops) committed
system.cpu.cpi                               1.692537                       # CPI: cycles per instruction
system.cpu.discardedOps                        190816                       # Number of ops (including micro ops) which were discarded before commit
system.cpu.dtb.accesses                             0                       # DTB accesses
system.cpu.dtb.align_faults                         0                       # Number of TLB faults due to alignment restrictions
system.cpu.dtb.domain_faults                        0                       # Number of TLB faults due to domain restrictions
system.cpu.dtb.flush_entries                        0                       # Number of entries that have been flushed from TLB
system.cpu.dtb.flush_tlb                            0                       # Number of times complete TLB was flushed
system.cpu.dtb.flush_tlb_asid                       0                       # Number of times TLB was flushed by ASID
system.cpu.dtb.flush_tlb_mva                        0                       # Number of times TLB was flushed by MVA
system.cpu.dtb.flush_tlb_mva_asid                   0                       # Number of times TLB was flushed by MVA & ASID
system.cpu.dtb.hits                                 0                       # DTB hits
system.cpu.dtb.inst_accesses                        0                       # ITB inst accesses
system.cpu.dtb.inst_hits                            0                       # ITB inst hits
system.cpu.dtb.inst_misses                          0                       # ITB inst misses
system.cpu.dtb.misses                               0                       # DTB misses
system.cpu.dtb.perms_faults                         0                       # Number of TLB faults due to permissions restrictions
system.cpu.dtb.prefetch_faults                      0                       # Number of TLB faults due to prefetch
system.cpu.dtb.read_accesses                        0                       # DTB read accesses
system.cpu.dtb.read_hits                            0                       # DTB read hits
system.cpu.dtb.read_misses                          0                       # DTB read misses
system.cpu.dtb.stage2_mmu.stage2_tlb.accesses            0                       # DTB accesses
system.cpu.dtb.stage2_mmu.stage2_tlb.align_faults            0                       # Number of TLB faults due to alignment restrictions
system.cpu.dtb.stage2_mmu.stage2_tlb.domain_faults            0                       # Number of TLB faults due to domain restrictions
system.cpu.dtb.stage2_mmu.stage2_tlb.flush_entries            0                       # Number of entries that have been flushed from TLB
system.cpu.dtb.stage2_mmu.stage2_tlb.flush_tlb            0                       # Number of times complete TLB was flushed
system.cpu.dtb.stage2_mmu.stage2_tlb.flush_tlb_asid            0                       # Number of times TLB was flushed by ASID
system.cpu.dtb.stage2_mmu.stage2_tlb.flush_tlb_mva            0                       # Number of times TLB was flushed by MVA
system.cpu.dtb.stage2_mmu.stage2_tlb.flush_tlb_mva_asid            0                       # Number of times TLB was flushed by MVA & ASID
system.cpu.dtb.stage2_mmu.stage2_tlb.hits            0                       # DTB hits
system.cpu.dtb.stage2_mmu.stage2_tlb.inst_accesses            0                       # ITB inst accesses
system.cpu.dtb.stage2_mmu.stage2_tlb.inst_hits            0                       # ITB inst hits
system.cpu.dtb.stage2_mmu.stage2_tlb.inst_misses            0                       # ITB inst misses
system.cpu.dtb.stage2_mmu.stage2_tlb.misses            0                       # DTB misses
system.cpu.dtb.stage2_mmu.stage2_tlb.perms_faults            0                       # Number of TLB faults due to permissions restrictions
system.cpu.dtb.stage2_mmu.stage2_tlb.prefetch_faults            0                       # Number of TLB faults due to prefetch
system.cpu.dtb.stage2_mmu.stage2_tlb.read_accesses            0                       # DTB read accesses
system.cpu.dtb.stage2_mmu.stage2_tlb.read_hits            0                       # DTB read hits
system.cpu.dtb.stage2_mmu.stage2_tlb.read_misses            0                       # DTB read misses
system.cpu.dtb.stage2_mmu.stage2_tlb.walker.walkRequestOrigin_Requested::Data            0                       # Table walker requests started/completed, data/inst
system.cpu.dtb.stage2_mmu.stage2_tlb.walker.walkRequestOrigin_Requested::Inst            0                       # Table walker requests started/completed, data/inst
system.cpu.dtb.stage2_mmu.stage2_tlb.walker.walkRequestOrigin_Requested::total            0                       # Table walker requests started/completed, data/inst
system.cpu.dtb.stage2_mmu.stage2_tlb.walker.walkRequestOrigin_Completed::Data            0                       # Table walker requests started/completed, data/inst
system.cpu.dtb.stage2_mmu.stage2_tlb.walker.walkRequestOrigin_Completed::Inst            0                       # Table walker requests started/completed, data/inst
system.cpu.dtb.stage2_mmu.stage2_tlb.walker.walkRequestOrigin_Completed::total            0                       # Table walker requests started/completed, data/inst
system.cpu.dtb.stage2_mmu.stage2_tlb.walker.walkRequestOrigin::total            0                       # Table walker requests started/completed, data/inst
system.cpu.dtb.stage2_mmu.stage2_tlb.walker.walks            0                       # Table walker walks requested
system.cpu.dtb.stage2_mmu.stage2_tlb.write_accesses            0                       # DTB write accesses
system.cpu.dtb.stage2_mmu.stage2_tlb.write_hits            0                       # DTB write hits
system.cpu.dtb.stage2_mmu.stage2_tlb.write_misses            0                       # DTB write misses
system.cpu.dtb.walker.walkRequestOrigin_Requested::Data            0                       # Table walker requests started/completed, data/inst
system.cpu.dtb.walker.walkRequestOrigin_Requested::Inst            0                       # Table walker requests started/completed, data/inst
system.cpu.dtb.walker.walkRequestOrigin_Requested::total            0                       # Table walker requests started/completed, data/inst
system.cpu.dtb.walker.walkRequestOrigin_Completed::Data            0                       # Table walker requests started/completed, data/inst
system.cpu.dtb.walker.walkRequestOrigin_Completed::Inst            0                       # Table walker requests started/completed, data/inst
system.cpu.dtb.walker.walkRequestOrigin_Completed::total            0                       # Table walker requests started/completed, data/inst
system.cpu.dtb.walker.walkRequestOrigin::total            0                       # Table walker requests started/completed, data/inst
system.cpu.dtb.walker.walks                         0                       # Table walker walks requested
system.cpu.dtb.write_accesses                       0                       # DTB write accesses
system.cpu.dtb.write_hits                           0                       # DTB write hits
system.cpu.dtb.write_misses                         0                       # DTB write misses
system.cpu.fetch2.amo_instructions                  0                       # Number of memory atomic instructions successfully decoded
system.cpu.fetch2.fp_instructions                   0                       # Number of floating point instructions successfully decoded
system.cpu.fetch2.int_instructions           42610519                       # Number of integer instructions successfully decoded
system.cpu.fetch2.load_instructions          43403341                       # Number of memory load instructions successfully decoded
system.cpu.fetch2.store_instructions         11001634                       # Number of memory store instructions successfully decoded
system.cpu.fetch2.vec_instructions                  0                       # Number of SIMD instructions successfully decoded
system.cpu.idleCycles                        36643410                       # Total number of cycles that the object has spent stopped
system.cpu.ipc                               0.590829                       # IPC: instructions per cycle
system.cpu.itb.accesses                             0                       # DTB accesses
system.cpu.itb.align_faults                         0                       # Number of TLB faults due to alignment restrictions
system.cpu.itb.domain_faults                        0                       # Number of TLB faults due to domain restrictions
system.cpu.itb.flush_entries                        0                       # Number of entries that have been flushed from TLB
system.cpu.itb.flush_tlb                            0                       # Number of times complete TLB was flushed
system.cpu.itb.flush_tlb_asid                       0                       # Number of times TLB was flushed by ASID
system.cpu.itb.flush_tlb_mva                        0                       # Number of times TLB was flushed by MVA
system.cpu.itb.flush_tlb_mva_asid                   0                       # Number of times TLB was flushed by MVA & ASID
system.cpu.itb.hits                                 0                       # DTB hits
system.cpu.itb.inst_accesses                        0                       # ITB inst accesses
system.cpu.itb.inst_hits                            0                       # ITB inst hits
system.cpu.itb.inst_misses                          0                       # ITB inst misses
system.cpu.itb.misses                               0                       # DTB misses
system.cpu.itb.perms_faults                         0                       # Number of TLB faults due to permissions restrictions
system.cpu.itb.prefetch_faults                      0                       # Number of TLB faults due to prefetch
system.cpu.itb.read_accesses                        0                       # DTB read accesses
system.cpu.itb.read_hits                            0                       # DTB read hits
system.cpu.itb.read_misses                          0                       # DTB read misses
system.cpu.itb.stage2_mmu.stage2_tlb.accesses            0                       # DTB accesses
system.cpu.itb.stage2_mmu.stage2_tlb.align_faults            0                       # Number of TLB faults due to alignment restrictions
system.cpu.itb.stage2_mmu.stage2_tlb.domain_faults            0                       # Number of TLB faults due to domain restrictions
system.cpu.itb.stage2_mmu.stage2_tlb.flush_entries            0                       # Number of entries that have been flushed from TLB
system.cpu.itb.stage2_mmu.stage2_tlb.flush_tlb            0                       # Number of times complete TLB was flushed
system.cpu.itb.stage2_mmu.stage2_tlb.flush_tlb_asid            0                       # Number of times TLB was flushed by ASID
system.cpu.itb.stage2_mmu.stage2_tlb.flush_tlb_mva            0                       # Number of times TLB was flushed by MVA
system.cpu.itb.stage2_mmu.stage2_tlb.flush_tlb_mva_asid            0                       # Number of times TLB was flushed by MVA & ASID
system.cpu.itb.stage2_mmu.stage2_tlb.hits            0                       # DTB hits
system.cpu.itb.stage2_mmu.stage2_tlb.inst_accesses            0                       # ITB inst accesses
system.cpu.itb.stage2_mmu.stage2_tlb.inst_hits            0                       # ITB inst hits
system.cpu.itb.stage2_mmu.stage2_tlb.inst_misses            0                       # ITB inst misses
system.cpu.itb.stage2_mmu.stage2_tlb.misses            0                       # DTB misses
system.cpu.itb.stage2_mmu.stage2_tlb.perms_faults            0                       # Number of TLB faults due to permissions restrictions
system.cpu.itb.stage2_mmu.stage2_tlb.prefetch_faults            0                       # Number of TLB faults due to prefetch
system.cpu.itb.stage2_mmu.stage2_tlb.read_accesses            0                       # DTB read accesses
system.cpu.itb.stage2_mmu.stage2_tlb.read_hits            0                       # DTB read hits
system.cpu.itb.stage2_mmu.stage2_tlb.read_misses            0                       # DTB read misses
system.cpu.itb.stage2_mmu.stage2_tlb.walker.walkRequestOrigin_Requested::Data            0                       # Table walker requests started/completed, data/inst
system.cpu.itb.stage2_mmu.stage2_tlb.walker.walkRequestOrigin_Requested::Inst            0                       # Table walker requests started/completed, data/inst
system.cpu.itb.stage2_mmu.stage2_tlb.walker.walkRequestOrigin_Requested::total            0                       # Table walker requests started/completed, data/inst
system.cpu.itb.stage2_mmu.stage2_tlb.walker.walkRequestOrigin_Completed::Data            0                       # Table walker requests started/completed, data/inst
system.cpu.itb.stage2_mmu.stage2_tlb.walker.walkRequestOrigin_Completed::Inst            0                       # Table walker requests started/completed, data/inst
system.cpu.itb.stage2_mmu.stage2_tlb.walker.walkRequestOrigin_Completed::total            0                       # Table walker requests started/completed, data/inst
system.cpu.itb.stage2_mmu.stage2_tlb.walker.walkRequestOrigin::total            0                       # Table walker requests started/completed, data/inst
system.cpu.itb.stage2_mmu.stage2_tlb.walker.walks            0                       # Table walker walks requested
system.cpu.itb.stage2_mmu.stage2_tlb.write_accesses            0                       # DTB write accesses
system.cpu.itb.stage2_mmu.stage2_tlb.write_hits            0                       # DTB write hits
system.cpu.itb.stage2_mmu.stage2_tlb.write_misses            0                       # DTB write misses
system.cpu.itb.walker.walkRequestOrigin_Requested::Data            0                       # Table walker requests started/completed, data/inst
system.cpu.itb.walker.walkRequestOrigin_Requested::Inst            0                       # Table walker requests started/completed, data/inst
system.cpu.itb.walker.walkRequestOrigin_Requested::total            0                       # Table walker requests started/completed, data/inst
system.cpu.itb.walker.walkRequestOrigin_Completed::Data            0                       # Table walker requests started/completed, data/inst
system.cpu.itb.walker.walkRequestOrigin_Completed::Inst            0                       # Table walker requests started/completed, data/inst
system.cpu.itb.walker.walkRequestOrigin_Completed::total            0                       # Table walker requests started/completed, data/inst
system.cpu.itb.walker.walkRequestOrigin::total            0                       # Table walker requests started/completed, data/inst
system.cpu.itb.walker.walks                         0                       # Table walker walks requested
system.cpu.itb.write_accesses                       0                       # DTB write accesses
system.cpu.itb.write_hits                           0                       # DTB write hits
system.cpu.itb.write_misses                         0                       # DTB write misses
system.cpu.numCycles                        169253677                       # number of cpu cycles simulated
system.cpu.numFetchSuspends                         0                       # Number of times Execute suspended instruction fetching
system.cpu.numWorkItemsCompleted                    0                       # number of work items this cpu completed
system.cpu.numWorkItemsStarted                      0                       # number of work items this cpu started
system.cpu.op_class_0::No_OpClass                   0      0.00%      0.00% # Class of committed instruction
system.cpu.op_class_0::IntAlu                46531400     46.44%     46.44% # Class of committed instruction
system.cpu.op_class_0::IntMult                  20720      0.02%     46.46% # Class of committed instruction
system.cpu.op_class_0::IntDiv                       0      0.00%     46.46% # Class of committed instruction
system.cpu.op_class_0::FloatAdd                     0      0.00%     46.46% # Class of committed instruction
system.cpu.op_class_0::FloatCmp                     0      0.00%     46.46% # Class of committed instruction
system.cpu.op_class_0::FloatCvt                     0      0.00%     46.46% # Class of committed instruction
system.cpu.op_class_0::FloatMult                    0      0.00%     46.46% # Class of committed instruction
system.cpu.op_class_0::FloatMultAcc                 0      0.00%     46.46% # Class of committed instruction
system.cpu.op_class_0::FloatDiv                     0      0.00%     46.46% # Class of committed instruction
system.cpu.op_class_0::FloatMisc                    0      0.00%     46.46% # Class of committed instruction
system.cpu.op_class_0::FloatSqrt                    0      0.00%     46.46% # Class of committed instruction
system.cpu.op_class_0::SimdAdd                      0      0.00%     46.46% # Class of committed instruction
system.cpu.op_class_0::SimdAddAcc                   0      0.00%     46.46% # Class of committed instruction
system.cpu.op_class_0::SimdAlu                      0      0.00%     46.46% # Class of committed instruction
system.cpu.op_class_0::SimdCmp                      0      0.00%     46.46% # Class of committed instruction
system.cpu.op_class_0::SimdCvt                      0      0.00%     46.46% # Class of committed instruction
system.cpu.op_class_0::SimdMisc                     0      0.00%     46.46% # Class of committed instruction
system.cpu.op_class_0::SimdMult                     0      0.00%     46.46% # Class of committed instruction
system.cpu.op_class_0::SimdMultAcc                  0      0.00%     46.46% # Class of committed instruction
system.cpu.op_class_0::SimdShift                    0      0.00%     46.46% # Class of committed instruction
system.cpu.op_class_0::SimdShiftAcc                 0      0.00%     46.46% # Class of committed instruction
system.cpu.op_class_0::SimdDiv                      0      0.00%     46.46% # Class of committed instruction
system.cpu.op_class_0::SimdSqrt                     0      0.00%     46.46% # Class of committed instruction
system.cpu.op_class_0::SimdFloatAdd                 0      0.00%     46.46% # Class of committed instruction
system.cpu.op_class_0::SimdFloatAlu                 0      0.00%     46.46% # Class of committed instruction
system.cpu.op_class_0::SimdFloatCmp                 0      0.00%     46.46% # Class of committed instruction
system.cpu.op_class_0::SimdFloatCvt                 0      0.00%     46.46% # Class of committed instruction
system.cpu.op_class_0::SimdFloatDiv                 0      0.00%     46.46% # Class of committed instruction
system.cpu.op_class_0::SimdFloatMisc               18      0.00%     46.46% # Class of committed instruction
system.cpu.op_class_0::SimdFloatMult                0      0.00%     46.46% # Class of committed instruction
system.cpu.op_class_0::SimdFloatMultAcc             0      0.00%     46.46% # Class of committed instruction
system.cpu.op_class_0::SimdFloatSqrt                0      0.00%     46.46% # Class of committed instruction
system.cpu.op_class_0::SimdReduceAdd                0      0.00%     46.46% # Class of committed instruction
system.cpu.op_class_0::SimdReduceAlu                0      0.00%     46.46% # Class of committed instruction
system.cpu.op_class_0::SimdReduceCmp                0      0.00%     46.46% # Class of committed instruction
system.cpu.op_class_0::SimdFloatReduceAdd            0      0.00%     46.46% # Class of committed instruction
system.cpu.op_class_0::SimdFloatReduceCmp            0      0.00%     46.46% # Class of committed instruction
system.cpu.op_class_0::SimdAes                      0      0.00%     46.46% # Class of committed instruction
system.cpu.op_class_0::SimdAesMix                   0      0.00%     46.46% # Class of committed instruction
system.cpu.op_class_0::SimdSha1Hash                 0      0.00%     46.46% # Class of committed instruction
system.cpu.op_class_0::SimdSha1Hash2                0      0.00%     46.46% # Class of committed instruction
system.cpu.op_class_0::SimdSha256Hash               0      0.00%     46.46% # Class of committed instruction
system.cpu.op_class_0::SimdSha256Hash2              0      0.00%     46.46% # Class of committed instruction
system.cpu.op_class_0::SimdShaSigma2                0      0.00%     46.46% # Class of committed instruction
system.cpu.op_class_0::SimdShaSigma3                0      0.00%     46.46% # Class of committed instruction
system.cpu.op_class_0::SimdPredAlu                  0      0.00%     46.46% # Class of committed instruction
system.cpu.op_class_0::MemRead               42693601     42.61%     89.07% # Class of committed instruction
system.cpu.op_class_0::MemWrite              10950624     10.93%    100.00% # Class of committed instruction
system.cpu.op_class_0::FloatMemRead                 0      0.00%    100.00% # Class of committed instruction
system.cpu.op_class_0::FloatMemWrite                0      0.00%    100.00% # Class of committed instruction
system.cpu.op_class_0::IprAccess                    0      0.00%    100.00% # Class of committed instruction
system.cpu.op_class_0::InstPrefetch                 0      0.00%    100.00% # Class of committed instruction
system.cpu.op_class_0::total                100196363                       # Class of committed instruction
system.cpu.tickCycles                       132610267                       # Number of cycles that the object actually ticked
system.cpu.workload.numSyscalls                    84                       # Number of system calls
system.membus.snoop_filter.hit_multi_requests            0                       # Number of requests hitting in the snoop filter with multiple (>1) holders of the requested data.
system.membus.snoop_filter.hit_multi_snoops            0                       # Number of snoops hitting in the snoop filter with multiple (>1) holders of the requested data.
system.membus.snoop_filter.hit_single_requests       139547                       # Number of requests hitting in the snoop filter with a single holder of the requested data.
system.membus.snoop_filter.hit_single_snoops            0                       # Number of snoops hitting in the snoop filter with a single holder of the requested data.
system.membus.snoop_filter.tot_requests        287513                       # Total number of requests made to the snoop filter.
system.membus.snoop_filter.tot_snoops               0                       # Total number of snoops made to the snoop filter.
system.tol2bus.snoop_filter.hit_multi_requests          168                       # Number of requests hitting in the snoop filter with multiple (>1) holders of the requested data.
system.tol2bus.snoop_filter.hit_multi_snoops            7                       # Number of snoops hitting in the snoop filter with multiple (>1) holders of the requested data.
system.tol2bus.snoop_filter.hit_single_requests       707938                       # Number of requests hitting in the snoop filter with a single holder of the requested data.
system.tol2bus.snoop_filter.hit_single_snoops          427                       # Number of snoops hitting in the snoop filter with a single holder of the requested data.
system.tol2bus.snoop_filter.tot_requests      1416627                       # Total number of requests made to the snoop filter.
system.tol2bus.snoop_filter.tot_snoops            434                       # Total number of snoops made to the snoop filter.
system.membus.pwrStateResidencyTicks::UNDEFINED  84626838500                       # Cumulative time (in ticks) in various power states
system.membus.trans_dist::ReadResp              49395                       # Transaction distribution
system.membus.trans_dist::WritebackDirty        97631                       # Transaction distribution
system.membus.trans_dist::CleanEvict            41905                       # Transaction distribution
system.membus.trans_dist::ReadExReq             98582                       # Transaction distribution
system.membus.trans_dist::ReadExResp            98581                       # Transaction distribution
system.membus.trans_dist::ReadSharedReq         49395                       # Transaction distribution
system.membus.pkt_count_system.l2.mem_side::system.mem_ctrls.port       435489                       # Packet count per connected master and slave (bytes)
system.membus.pkt_count::total                 435489                       # Packet count per connected master and slave (bytes)
system.membus.pkt_size_system.l2.mem_side::system.mem_ctrls.port     31437696                       # Cumulative packet size per connected master and slave (bytes)
system.membus.pkt_size::total                31437696                       # Cumulative packet size per connected master and slave (bytes)
system.membus.snoops                                0                       # Total snoops (count)
system.membus.snoopTraffic                          0                       # Total snoop traffic (bytes)
system.membus.snoop_fanout::samples            147977                       # Request fanout histogram
system.membus.snoop_fanout::mean                    0                       # Request fanout histogram
system.membus.snoop_fanout::stdev                   0                       # Request fanout histogram
system.membus.snoop_fanout::underflows              0      0.00%      0.00% # Request fanout histogram
system.membus.snoop_fanout::0                  147977    100.00%    100.00% # Request fanout histogram
system.membus.snoop_fanout::1                       0      0.00%    100.00% # Request fanout histogram
system.membus.snoop_fanout::overflows               0      0.00%    100.00% # Request fanout histogram
system.membus.snoop_fanout::min_value               0                       # Request fanout histogram
system.membus.snoop_fanout::max_value               0                       # Request fanout histogram
system.membus.snoop_fanout::total              147977                       # Request fanout histogram
system.membus.respLayer1.occupancy         1388647250                       # Layer occupancy (ticks)
system.membus.respLayer1.utilization              1.6                       # Layer utilization (%)
system.membus.reqLayer0.occupancy          1102823000                       # Layer occupancy (ticks)
system.membus.reqLayer0.utilization               1.3                       # Layer utilization (%)
system.tol2bus.pwrStateResidencyTicks::UNDEFINED  84626838500                       # Cumulative time (in ticks) in various power states
system.tol2bus.trans_dist::ReadResp            419720                       # Transaction distribution
system.tol2bus.trans_dist::WritebackDirty       750368                       # Transaction distribution
system.tol2bus.trans_dist::WritebackClean          302                       # Transaction distribution
system.tol2bus.trans_dist::CleanEvict           97224                       # Transaction distribution
system.tol2bus.trans_dist::ReadExReq           288969                       # Transaction distribution
system.tol2bus.trans_dist::ReadExResp          288968                       # Transaction distribution
system.tol2bus.trans_dist::ReadCleanReq           540                       # Transaction distribution
system.tol2bus.trans_dist::ReadSharedReq       419180                       # Transaction distribution
system.tol2bus.pkt_count_system.cpu.icache.mem_side::system.l2.cpu_side         1382                       # Packet count per connected master and slave (bytes)
system.tol2bus.pkt_count_system.cpu.dcache.mem_side::system.l2.cpu_side      2123933                       # Packet count per connected master and slave (bytes)
system.tol2bus.pkt_count::total               2125315                       # Packet count per connected master and slave (bytes)
system.tol2bus.pkt_size_system.cpu.icache.mem_side::system.l2.cpu_side       107776                       # Cumulative packet size per connected master and slave (bytes)
system.tol2bus.pkt_size_system.cpu.dcache.mem_side::system.l2.cpu_side    174193280                       # Cumulative packet size per connected master and slave (bytes)
system.tol2bus.pkt_size::total              174301056                       # Cumulative packet size per connected master and slave (bytes)
system.tol2bus.snoops                          139956                       # Total snoops (count)
system.tol2bus.snoopTraffic                  12496768                       # Total snoop traffic (bytes)
system.tol2bus.snoop_fanout::samples           848645                       # Request fanout histogram
system.tol2bus.snoop_fanout::mean            0.000718                       # Request fanout histogram
system.tol2bus.snoop_fanout::stdev           0.027085                       # Request fanout histogram
system.tol2bus.snoop_fanout::underflows             0      0.00%      0.00% # Request fanout histogram
system.tol2bus.snoop_fanout::0                 848043     99.93%     99.93% # Request fanout histogram
system.tol2bus.snoop_fanout::1                    595      0.07%    100.00% # Request fanout histogram
system.tol2bus.snoop_fanout::2                      7      0.00%    100.00% # Request fanout histogram
system.tol2bus.snoop_fanout::overflows              0      0.00%    100.00% # Request fanout histogram
system.tol2bus.snoop_fanout::min_value              0                       # Request fanout histogram
system.tol2bus.snoop_fanout::max_value              2                       # Request fanout histogram
system.tol2bus.snoop_fanout::total             848645                       # Request fanout histogram
system.tol2bus.reqLayer0.occupancy         2014391500                       # Layer occupancy (ticks)
system.tol2bus.reqLayer0.utilization              2.4                       # Layer utilization (%)
system.tol2bus.respLayer1.occupancy        1770372495                       # Layer occupancy (ticks)
system.tol2bus.respLayer1.utilization             2.1                       # Layer utilization (%)
system.tol2bus.respLayer0.occupancy           1350000                       # Layer occupancy (ticks)
system.tol2bus.respLayer0.utilization             0.0                       # Layer utilization (%)
system.voltage_domain.voltage                       1                       # Voltage in Volts
system.clk_domain.clock                          1000                       # Clock period in ticks
system.l2.pwrStateResidencyTicks::UNDEFINED  84626838500                       # Cumulative time (in ticks) in various power states
system.l2.demand_hits::.cpu.inst                  116                       # number of demand (read+write) hits
system.l2.demand_hits::.cpu.data               560591                       # number of demand (read+write) hits
system.l2.demand_hits::total                   560707                       # number of demand (read+write) hits
system.l2.overall_hits::.cpu.inst                 116                       # number of overall hits
system.l2.overall_hits::.cpu.data              560591                       # number of overall hits
system.l2.overall_hits::total                  560707                       # number of overall hits
system.l2.demand_misses::.cpu.inst                424                       # number of demand (read+write) misses
system.l2.demand_misses::.cpu.data             147558                       # number of demand (read+write) misses
system.l2.demand_misses::total                 147982                       # number of demand (read+write) misses
system.l2.overall_misses::.cpu.inst               424                       # number of overall misses
system.l2.overall_misses::.cpu.data            147558                       # number of overall misses
system.l2.overall_misses::total                147982                       # number of overall misses
system.l2.demand_miss_latency::.cpu.inst     36503000                       # number of demand (read+write) miss cycles
system.l2.demand_miss_latency::.cpu.data  13693213000                       # number of demand (read+write) miss cycles
system.l2.demand_miss_latency::total      13729716000                       # number of demand (read+write) miss cycles
system.l2.overall_miss_latency::.cpu.inst     36503000                       # number of overall miss cycles
system.l2.overall_miss_latency::.cpu.data  13693213000                       # number of overall miss cycles
system.l2.overall_miss_latency::total     13729716000                       # number of overall miss cycles
system.l2.demand_accesses::.cpu.inst              540                       # number of demand (read+write) accesses
system.l2.demand_accesses::.cpu.data           708149                       # number of demand (read+write) accesses
system.l2.demand_accesses::total               708689                       # number of demand (read+write) accesses
system.l2.overall_accesses::.cpu.inst             540                       # number of overall (read+write) accesses
system.l2.overall_accesses::.cpu.data          708149                       # number of overall (read+write) accesses
system.l2.overall_accesses::total              708689                       # number of overall (read+write) accesses
system.l2.demand_miss_rate::.cpu.inst        0.785185                       # miss rate for demand accesses
system.l2.demand_miss_rate::.cpu.data        0.208371                       # miss rate for demand accesses
system.l2.demand_miss_rate::total            0.208811                       # miss rate for demand accesses
system.l2.overall_miss_rate::.cpu.inst       0.785185                       # miss rate for overall accesses
system.l2.overall_miss_rate::.cpu.data       0.208371                       # miss rate for overall accesses
system.l2.overall_miss_rate::total           0.208811                       # miss rate for overall accesses
system.l2.demand_avg_miss_latency::.cpu.inst 86091.981132                       # average overall miss latency
system.l2.demand_avg_miss_latency::.cpu.data 92798.851977                       # average overall miss latency
system.l2.demand_avg_miss_latency::total 92779.635361                       # average overall miss latency
system.l2.overall_avg_miss_latency::.cpu.inst 86091.981132                       # average overall miss latency
system.l2.overall_avg_miss_latency::.cpu.data 92798.851977                       # average overall miss latency
system.l2.overall_avg_miss_latency::total 92779.635361                       # average overall miss latency
system.l2.blocked_cycles::no_mshrs                  0                       # number of cycles access was blocked
system.l2.blocked_cycles::no_targets                0                       # number of cycles access was blocked
system.l2.blocked::no_mshrs                         0                       # number of cycles access was blocked
system.l2.blocked::no_targets                       0                       # number of cycles access was blocked
system.l2.avg_blocked_cycles::no_mshrs            nan                       # average number of cycles each access was blocked
system.l2.avg_blocked_cycles::no_targets          nan                       # average number of cycles each access was blocked
system.l2.writebacks::.writebacks               97631                       # number of writebacks
system.l2.writebacks::total                     97631                       # number of writebacks
system.l2.demand_mshr_hits::.cpu.data               5                       # number of demand (read+write) MSHR hits
system.l2.demand_mshr_hits::total                   5                       # number of demand (read+write) MSHR hits
system.l2.overall_mshr_hits::.cpu.data              5                       # number of overall MSHR hits
system.l2.overall_mshr_hits::total                  5                       # number of overall MSHR hits
system.l2.demand_mshr_misses::.cpu.inst           424                       # number of demand (read+write) MSHR misses
system.l2.demand_mshr_misses::.cpu.data        147553                       # number of demand (read+write) MSHR misses
system.l2.demand_mshr_misses::total            147977                       # number of demand (read+write) MSHR misses
system.l2.overall_mshr_misses::.cpu.inst          424                       # number of overall MSHR misses
system.l2.overall_mshr_misses::.cpu.data       147553                       # number of overall MSHR misses
system.l2.overall_mshr_misses::total           147977                       # number of overall MSHR misses
system.l2.demand_mshr_miss_latency::.cpu.inst     32263000                       # number of demand (read+write) MSHR miss cycles
system.l2.demand_mshr_miss_latency::.cpu.data  12217343500                       # number of demand (read+write) MSHR miss cycles
system.l2.demand_mshr_miss_latency::total  12249606500                       # number of demand (read+write) MSHR miss cycles
system.l2.overall_mshr_miss_latency::.cpu.inst     32263000                       # number of overall MSHR miss cycles
system.l2.overall_mshr_miss_latency::.cpu.data  12217343500                       # number of overall MSHR miss cycles
system.l2.overall_mshr_miss_latency::total  12249606500                       # number of overall MSHR miss cycles
system.l2.demand_mshr_miss_rate::.cpu.inst     0.785185                       # mshr miss rate for demand accesses
system.l2.demand_mshr_miss_rate::.cpu.data     0.208364                       # mshr miss rate for demand accesses
system.l2.demand_mshr_miss_rate::total       0.208804                       # mshr miss rate for demand accesses
system.l2.overall_mshr_miss_rate::.cpu.inst     0.785185                       # mshr miss rate for overall accesses
system.l2.overall_mshr_miss_rate::.cpu.data     0.208364                       # mshr miss rate for overall accesses
system.l2.overall_mshr_miss_rate::total      0.208804                       # mshr miss rate for overall accesses
system.l2.demand_avg_mshr_miss_latency::.cpu.inst 76091.981132                       # average overall mshr miss latency
system.l2.demand_avg_mshr_miss_latency::.cpu.data 82799.695703                       # average overall mshr miss latency
system.l2.demand_avg_mshr_miss_latency::total 82780.476020                       # average overall mshr miss latency
system.l2.overall_avg_mshr_miss_latency::.cpu.inst 76091.981132                       # average overall mshr miss latency
system.l2.overall_avg_mshr_miss_latency::.cpu.data 82799.695703                       # average overall mshr miss latency
system.l2.overall_avg_mshr_miss_latency::total 82780.476020                       # average overall mshr miss latency
system.l2.replacements                         139956                       # number of replacements
system.l2.WritebackDirty_hits::.writebacks       652737                       # number of WritebackDirty hits
system.l2.WritebackDirty_hits::total           652737                       # number of WritebackDirty hits
system.l2.WritebackDirty_accesses::.writebacks       652737                       # number of WritebackDirty accesses(hits+misses)
system.l2.WritebackDirty_accesses::total       652737                       # number of WritebackDirty accesses(hits+misses)
system.l2.WritebackClean_hits::.writebacks          289                       # number of WritebackClean hits
system.l2.WritebackClean_hits::total              289                       # number of WritebackClean hits
system.l2.WritebackClean_accesses::.writebacks          289                       # number of WritebackClean accesses(hits+misses)
system.l2.WritebackClean_accesses::total          289                       # number of WritebackClean accesses(hits+misses)
system.l2.CleanEvict_mshr_misses::.writebacks           14                       # number of CleanEvict MSHR misses
system.l2.CleanEvict_mshr_misses::total            14                       # number of CleanEvict MSHR misses
system.l2.CleanEvict_mshr_miss_rate::.writebacks          inf                       # mshr miss rate for CleanEvict accesses
system.l2.CleanEvict_mshr_miss_rate::total          inf                       # mshr miss rate for CleanEvict accesses
system.l2.ReadExReq_hits::.cpu.data            190387                       # number of ReadExReq hits
system.l2.ReadExReq_hits::total                190387                       # number of ReadExReq hits
system.l2.ReadExReq_misses::.cpu.data           98582                       # number of ReadExReq misses
system.l2.ReadExReq_misses::total               98582                       # number of ReadExReq misses
system.l2.ReadExReq_miss_latency::.cpu.data   9322790000                       # number of ReadExReq miss cycles
system.l2.ReadExReq_miss_latency::total    9322790000                       # number of ReadExReq miss cycles
system.l2.ReadExReq_accesses::.cpu.data        288969                       # number of ReadExReq accesses(hits+misses)
system.l2.ReadExReq_accesses::total            288969                       # number of ReadExReq accesses(hits+misses)
system.l2.ReadExReq_miss_rate::.cpu.data     0.341151                       # miss rate for ReadExReq accesses
system.l2.ReadExReq_miss_rate::total         0.341151                       # miss rate for ReadExReq accesses
system.l2.ReadExReq_avg_miss_latency::.cpu.data 94568.886815                       # average ReadExReq miss latency
system.l2.ReadExReq_avg_miss_latency::total 94568.886815                       # average ReadExReq miss latency
system.l2.ReadExReq_mshr_misses::.cpu.data        98582                       # number of ReadExReq MSHR misses
system.l2.ReadExReq_mshr_misses::total          98582                       # number of ReadExReq MSHR misses
system.l2.ReadExReq_mshr_miss_latency::.cpu.data   8336980000                       # number of ReadExReq MSHR miss cycles
system.l2.ReadExReq_mshr_miss_latency::total   8336980000                       # number of ReadExReq MSHR miss cycles
system.l2.ReadExReq_mshr_miss_rate::.cpu.data     0.341151                       # mshr miss rate for ReadExReq accesses
system.l2.ReadExReq_mshr_miss_rate::total     0.341151                       # mshr miss rate for ReadExReq accesses
system.l2.ReadExReq_avg_mshr_miss_latency::.cpu.data 84568.988253                       # average ReadExReq mshr miss latency
system.l2.ReadExReq_avg_mshr_miss_latency::total 84568.988253                       # average ReadExReq mshr miss latency
system.l2.ReadCleanReq_hits::.cpu.inst            116                       # number of ReadCleanReq hits
system.l2.ReadCleanReq_hits::total                116                       # number of ReadCleanReq hits
system.l2.ReadCleanReq_misses::.cpu.inst          424                       # number of ReadCleanReq misses
system.l2.ReadCleanReq_misses::total              424                       # number of ReadCleanReq misses
system.l2.ReadCleanReq_miss_latency::.cpu.inst     36503000                       # number of ReadCleanReq miss cycles
system.l2.ReadCleanReq_miss_latency::total     36503000                       # number of ReadCleanReq miss cycles
system.l2.ReadCleanReq_accesses::.cpu.inst          540                       # number of ReadCleanReq accesses(hits+misses)
system.l2.ReadCleanReq_accesses::total            540                       # number of ReadCleanReq accesses(hits+misses)
system.l2.ReadCleanReq_miss_rate::.cpu.inst     0.785185                       # miss rate for ReadCleanReq accesses
system.l2.ReadCleanReq_miss_rate::total      0.785185                       # miss rate for ReadCleanReq accesses
system.l2.ReadCleanReq_avg_miss_latency::.cpu.inst 86091.981132                       # average ReadCleanReq miss latency
system.l2.ReadCleanReq_avg_miss_latency::total 86091.981132                       # average ReadCleanReq miss latency
system.l2.ReadCleanReq_mshr_misses::.cpu.inst          424                       # number of ReadCleanReq MSHR misses
system.l2.ReadCleanReq_mshr_misses::total          424                       # number of ReadCleanReq MSHR misses
system.l2.ReadCleanReq_mshr_miss_latency::.cpu.inst     32263000                       # number of ReadCleanReq MSHR miss cycles
system.l2.ReadCleanReq_mshr_miss_latency::total     32263000                       # number of ReadCleanReq MSHR miss cycles
system.l2.ReadCleanReq_mshr_miss_rate::.cpu.inst     0.785185                       # mshr miss rate for ReadCleanReq accesses
system.l2.ReadCleanReq_mshr_miss_rate::total     0.785185                       # mshr miss rate for ReadCleanReq accesses
system.l2.ReadCleanReq_avg_mshr_miss_latency::.cpu.inst 76091.981132                       # average ReadCleanReq mshr miss latency
system.l2.ReadCleanReq_avg_mshr_miss_latency::total 76091.981132                       # average ReadCleanReq mshr miss latency
system.l2.ReadSharedReq_hits::.cpu.data        370204                       # number of ReadSharedReq hits
system.l2.ReadSharedReq_hits::total            370204                       # number of ReadSharedReq hits
system.l2.ReadSharedReq_misses::.cpu.data        48976                       # number of ReadSharedReq misses
system.l2.ReadSharedReq_misses::total           48976                       # number of ReadSharedReq misses
system.l2.ReadSharedReq_miss_latency::.cpu.data   4370423000                       # number of ReadSharedReq miss cycles
system.l2.ReadSharedReq_miss_latency::total   4370423000                       # number of ReadSharedReq miss cycles
system.l2.ReadSharedReq_accesses::.cpu.data       419180                       # number of ReadSharedReq accesses(hits+misses)
system.l2.ReadSharedReq_accesses::total        419180                       # number of ReadSharedReq accesses(hits+misses)
system.l2.ReadSharedReq_miss_rate::.cpu.data     0.116838                       # miss rate for ReadSharedReq accesses
system.l2.ReadSharedReq_miss_rate::total     0.116838                       # miss rate for ReadSharedReq accesses
system.l2.ReadSharedReq_avg_miss_latency::.cpu.data 89236.013558                       # average ReadSharedReq miss latency
system.l2.ReadSharedReq_avg_miss_latency::total 89236.013558                       # average ReadSharedReq miss latency
system.l2.ReadSharedReq_mshr_hits::.cpu.data            5                       # number of ReadSharedReq MSHR hits
system.l2.ReadSharedReq_mshr_hits::total            5                       # number of ReadSharedReq MSHR hits
system.l2.ReadSharedReq_mshr_misses::.cpu.data        48971                       # number of ReadSharedReq MSHR misses
system.l2.ReadSharedReq_mshr_misses::total        48971                       # number of ReadSharedReq MSHR misses
system.l2.ReadSharedReq_mshr_miss_latency::.cpu.data   3880363500                       # number of ReadSharedReq MSHR miss cycles
system.l2.ReadSharedReq_mshr_miss_latency::total   3880363500                       # number of ReadSharedReq MSHR miss cycles
system.l2.ReadSharedReq_mshr_miss_rate::.cpu.data     0.116826                       # mshr miss rate for ReadSharedReq accesses
system.l2.ReadSharedReq_mshr_miss_rate::total     0.116826                       # mshr miss rate for ReadSharedReq accesses
system.l2.ReadSharedReq_avg_mshr_miss_latency::.cpu.data 79237.987789                       # average ReadSharedReq mshr miss latency
system.l2.ReadSharedReq_avg_mshr_miss_latency::total 79237.987789                       # average ReadSharedReq mshr miss latency
system.l2.tags.pwrStateResidencyTicks::UNDEFINED  84626838500                       # Cumulative time (in ticks) in various power states
system.l2.tags.tagsinuse                  8012.170949                       # Cycle average of tags in use
system.l2.tags.total_refs                     1416439                       # Total number of references to valid blocks.
system.l2.tags.sampled_refs                    148148                       # Sample count of references to valid blocks.
system.l2.tags.avg_refs                      9.560973                       # Average number of references to valid blocks.
system.l2.tags.warmup_cycle                     82000                       # Cycle when the warmup percentage was hit.
system.l2.tags.occ_blocks::.writebacks      26.980832                       # Average occupied blocks per requestor
system.l2.tags.occ_blocks::.cpu.inst        34.244471                       # Average occupied blocks per requestor
system.l2.tags.occ_blocks::.cpu.data      7950.945646                       # Average occupied blocks per requestor
system.l2.tags.occ_percent::.writebacks      0.003294                       # Average percentage of cache occupancy
system.l2.tags.occ_percent::.cpu.inst        0.004180                       # Average percentage of cache occupancy
system.l2.tags.occ_percent::.cpu.data        0.970574                       # Average percentage of cache occupancy
system.l2.tags.occ_percent::total            0.978048                       # Average percentage of cache occupancy
system.l2.tags.occ_task_id_blocks::1024          8192                       # Occupied blocks per task id
system.l2.tags.age_task_id_blocks_1024::0          110                       # Occupied blocks per task id
system.l2.tags.age_task_id_blocks_1024::1          162                       # Occupied blocks per task id
system.l2.tags.age_task_id_blocks_1024::2         2302                       # Occupied blocks per task id
system.l2.tags.age_task_id_blocks_1024::3         4800                       # Occupied blocks per task id
system.l2.tags.age_task_id_blocks_1024::4          818                       # Occupied blocks per task id
system.l2.tags.occ_task_id_percent::1024            1                       # Percentage of cache occupancy per task id
system.l2.tags.tag_accesses                   5813984                       # Number of tag accesses
system.l2.tags.data_accesses                  5813984                       # Number of data accesses
system.cpu_voltage_domain.voltage                   1                       # Voltage in Volts
system.mem_ctrls.pwrStateResidencyTicks::UNDEFINED  84626838500                       # Cumulative time (in ticks) in various power states
system.mem_ctrls.bytes_read::.cpu.inst          54272                       # Number of bytes read from this memory
system.mem_ctrls.bytes_read::.cpu.data       18886656                       # Number of bytes read from this memory
system.mem_ctrls.bytes_read::total           18940928                       # Number of bytes read from this memory
system.mem_ctrls.bytes_inst_read::.cpu.inst        54272                       # Number of instructions bytes read from this memory
system.mem_ctrls.bytes_inst_read::total         54272                       # Number of instructions bytes read from this memory
system.mem_ctrls.bytes_written::.writebacks     12496768                       # Number of bytes written to this memory
system.mem_ctrls.bytes_written::total        12496768                       # Number of bytes written to this memory
system.mem_ctrls.num_reads::.cpu.inst             424                       # Number of read requests responded to by this memory
system.mem_ctrls.num_reads::.cpu.data          147552                       # Number of read requests responded to by this memory
system.mem_ctrls.num_reads::total              147976                       # Number of read requests responded to by this memory
system.mem_ctrls.num_writes::.writebacks        97631                       # Number of write requests responded to by this memory
system.mem_ctrls.num_writes::total              97631                       # Number of write requests responded to by this memory
system.mem_ctrls.bw_read::.cpu.inst            641310                       # Total read bandwidth from this memory (bytes/s)
system.mem_ctrls.bw_read::.cpu.data         223175725                       # Total read bandwidth from this memory (bytes/s)
system.mem_ctrls.bw_read::total             223817034                       # Total read bandwidth from this memory (bytes/s)
system.mem_ctrls.bw_inst_read::.cpu.inst       641310                       # Instruction read bandwidth from this memory (bytes/s)
system.mem_ctrls.bw_inst_read::total           641310                       # Instruction read bandwidth from this memory (bytes/s)
system.mem_ctrls.bw_write::.writebacks      147669087                       # Write bandwidth from this memory (bytes/s)
system.mem_ctrls.bw_write::total            147669087                       # Write bandwidth from this memory (bytes/s)
system.mem_ctrls.bw_total::.writebacks      147669087                       # Total bandwidth to/from this memory (bytes/s)
system.mem_ctrls.bw_total::.cpu.inst           641310                       # Total bandwidth to/from this memory (bytes/s)
system.mem_ctrls.bw_total::.cpu.data        223175725                       # Total bandwidth to/from this memory (bytes/s)
system.mem_ctrls.bw_total::total            371486121                       # Total bandwidth to/from this memory (bytes/s)
system.mem_ctrls.avgPriority_.writebacks::samples    195262.00                       # Average QoS priority value for accepted requests
system.mem_ctrls.avgPriority_.cpu.inst::samples       848.00                       # Average QoS priority value for accepted requests
system.mem_ctrls.avgPriority_.cpu.data::samples    294781.00                       # Average QoS priority value for accepted requests
system.mem_ctrls.priorityMinLatency      0.000000018750                       # per QoS priority minimum request to response latency (s)
system.mem_ctrls.priorityMaxLatency      0.004536924500                       # per QoS priority maximum request to response latency (s)
system.mem_ctrls.numReadWriteTurnArounds        11613                       # Number of turnarounds from READ to WRITE
system.mem_ctrls.numWriteReadTurnArounds        11613                       # Number of turnarounds from WRITE to READ
system.mem_ctrls.numStayReadState              547052                       # Number of times bus staying in READ state
system.mem_ctrls.numStayWriteState             183850                       # Number of times bus staying in WRITE state
system.mem_ctrls.readReqs                      147977                       # Number of read requests accepted
system.mem_ctrls.writeReqs                      97631                       # Number of write requests accepted
system.mem_ctrls.readBursts                    295954                       # Number of DRAM read bursts, including those serviced by the write queue
system.mem_ctrls.writeBursts                   195262                       # Number of DRAM write bursts, including those merged in the write queue
system.mem_ctrls.servicedByWrQ                    325                       # Number of DRAM read bursts serviced by the write queue
system.mem_ctrls.mergedWrBursts                     0                       # Number of DRAM write bursts merged with an existing one
system.mem_ctrls.neitherReadNorWriteReqs            0                       # Number of requests that are neither read nor write
system.mem_ctrls.perBankRdBursts::0             18878                       # Per bank write bursts
system.mem_ctrls.perBankRdBursts::1             18476                       # Per bank write bursts
system.mem_ctrls.perBankRdBursts::2             18552                       # Per bank write bursts
system.mem_ctrls.perBankRdBursts::3             18432                       # Per bank write bursts
system.mem_ctrls.perBankRdBursts::4             19576                       # Per bank write bursts
system.mem_ctrls.perBankRdBursts::5             18757                       # Per bank write bursts
system.mem_ctrls.perBankRdBursts::6             17964                       # Per bank write bursts
system.mem_ctrls.perBankRdBursts::7             18310                       # Per bank write bursts
system.mem_ctrls.perBankRdBursts::8             18154                       # Per bank write bursts
system.mem_ctrls.perBankRdBursts::9             18255                       # Per bank write bursts
system.mem_ctrls.perBankRdBursts::10            17977                       # Per bank write bursts
system.mem_ctrls.perBankRdBursts::11            17264                       # Per bank write bursts
system.mem_ctrls.perBankRdBursts::12            18497                       # Per bank write bursts
system.mem_ctrls.perBankRdBursts::13            19446                       # Per bank write bursts
system.mem_ctrls.perBankRdBursts::14            18353                       # Per bank write bursts
system.mem_ctrls.perBankRdBursts::15            18738                       # Per bank write bursts
system.mem_ctrls.perBankWrBursts::0             12380                       # Per bank write bursts
system.mem_ctrls.perBankWrBursts::1             12136                       # Per bank write bursts
system.mem_ctrls.perBankWrBursts::2             12126                       # Per bank write bursts
system.mem_ctrls.perBankWrBursts::3             12192                       # Per bank write bursts
system.mem_ctrls.perBankWrBursts::4             13446                       # Per bank write bursts
system.mem_ctrls.perBankWrBursts::5             12574                       # Per bank write bursts
system.mem_ctrls.perBankWrBursts::6             11756                       # Per bank write bursts
system.mem_ctrls.perBankWrBursts::7             12020                       # Per bank write bursts
system.mem_ctrls.perBankWrBursts::8             11824                       # Per bank write bursts
system.mem_ctrls.perBankWrBursts::9             12052                       # Per bank write bursts
system.mem_ctrls.perBankWrBursts::10            11851                       # Per bank write bursts
system.mem_ctrls.perBankWrBursts::11            11234                       # Per bank write bursts
system.mem_ctrls.perBankWrBursts::12            12132                       # Per bank write bursts
system.mem_ctrls.perBankWrBursts::13            13052                       # Per bank write bursts
system.mem_ctrls.perBankWrBursts::14            12010                       # Per bank write bursts
system.mem_ctrls.perBankWrBursts::15            12450                       # Per bank write bursts
system.mem_ctrls.avgRdQLen                       2.08                       # Average read queue length when enqueuing
system.mem_ctrls.avgWrQLen                      25.62                       # Average write queue length when enqueuing
system.mem_ctrls.totQLat                   6013325750                       # Total ticks spent queuing
system.mem_ctrls.totBusLat                 1478145000                       # Total ticks spent in databus transfers
system.mem_ctrls.totMemAccLat             11556369500                       # Total ticks spent from burst creation until serviced by the DRAM
system.mem_ctrls.avgQLat                     20340.78                       # Average queueing delay per DRAM burst
system.mem_ctrls.avgBusLat                    5000.00                       # Average bus latency per DRAM burst
system.mem_ctrls.avgMemAccLat                39090.78                       # Average memory access latency per DRAM burst
system.mem_ctrls.numRdRetry                         0                       # Number of times read queue was full causing retry
system.mem_ctrls.numWrRetry                         0                       # Number of times write queue was full causing retry
system.mem_ctrls.readRowHits                   230853                       # Number of row buffer hits during reads
system.mem_ctrls.writeRowHits                  147570                       # Number of row buffer hits during writes
system.mem_ctrls.readRowHitRate                 78.09                       # Row buffer hit rate for reads
system.mem_ctrls.writeRowHitRate                75.58                       # Row buffer hit rate for writes
system.mem_ctrls.readPktSize::0                     0                       # Read request sizes (log2)
system.mem_ctrls.readPktSize::1                     0                       # Read request sizes (log2)
system.mem_ctrls.readPktSize::2                     0                       # Read request sizes (log2)
system.mem_ctrls.readPktSize::3                     0                       # Read request sizes (log2)
system.mem_ctrls.readPktSize::4                     0                       # Read request sizes (log2)
system.mem_ctrls.readPktSize::5                     0                       # Read request sizes (log2)
system.mem_ctrls.readPktSize::6                295954                       # Read request sizes (log2)
system.mem_ctrls.writePktSize::0                    0                       # Write request sizes (log2)
system.mem_ctrls.writePktSize::1                    0                       # Write request sizes (log2)
system.mem_ctrls.writePktSize::2                    0                       # Write request sizes (log2)
system.mem_ctrls.writePktSize::3                    0                       # Write request sizes (log2)
system.mem_ctrls.writePktSize::4                    0                       # Write request sizes (log2)
system.mem_ctrls.writePktSize::5                    0                       # Write request sizes (log2)
system.mem_ctrls.writePktSize::6               195262                       # Write request sizes (log2)
system.mem_ctrls.rdQLenPdf::0                  126141                       # What read queue length does an incoming req see
system.mem_ctrls.rdQLenPdf::1                  126774                       # What read queue length does an incoming req see
system.mem_ctrls.rdQLenPdf::2                   21673                       # What read queue length does an incoming req see
system.mem_ctrls.rdQLenPdf::3                   21028                       # What read queue length does an incoming req see
system.mem_ctrls.rdQLenPdf::4                       6                       # What read queue length does an incoming req see
system.mem_ctrls.rdQLenPdf::5                       5                       # What read queue length does an incoming req see
system.mem_ctrls.rdQLenPdf::6                       1                       # What read queue length does an incoming req see
system.mem_ctrls.rdQLenPdf::7                       1                       # What read queue length does an incoming req see
system.mem_ctrls.rdQLenPdf::8                       0                       # What read queue length does an incoming req see
system.mem_ctrls.rdQLenPdf::9                       0                       # What read queue length does an incoming req see
system.mem_ctrls.rdQLenPdf::10                      0                       # What read queue length does an incoming req see
system.mem_ctrls.rdQLenPdf::11                      0                       # What read queue length does an incoming req see
system.mem_ctrls.rdQLenPdf::12                      0                       # What read queue length does an incoming req see
system.mem_ctrls.rdQLenPdf::13                      0                       # What read queue length does an incoming req see
system.mem_ctrls.rdQLenPdf::14                      0                       # What read queue length does an incoming req see
system.mem_ctrls.rdQLenPdf::15                      0                       # What read queue length does an incoming req see
system.mem_ctrls.rdQLenPdf::16                      0                       # What read queue length does an incoming req see
system.mem_ctrls.rdQLenPdf::17                      0                       # What read queue length does an incoming req see
system.mem_ctrls.rdQLenPdf::18                      0                       # What read queue length does an incoming req see
system.mem_ctrls.rdQLenPdf::19                      0                       # What read queue length does an incoming req see
system.mem_ctrls.rdQLenPdf::20                      0                       # What read queue length does an incoming req see
system.mem_ctrls.rdQLenPdf::21                      0                       # What read queue length does an incoming req see
system.mem_ctrls.rdQLenPdf::22                      0                       # What read queue length does an incoming req see
system.mem_ctrls.rdQLenPdf::23                      0                       # What read queue length does an incoming req see
system.mem_ctrls.rdQLenPdf::24                      0                       # What read queue length does an incoming req see
system.mem_ctrls.rdQLenPdf::25                      0                       # What read queue length does an incoming req see
system.mem_ctrls.rdQLenPdf::26                      0                       # What read queue length does an incoming req see
system.mem_ctrls.rdQLenPdf::27                      0                       # What read queue length does an incoming req see
system.mem_ctrls.rdQLenPdf::28                      0                       # What read queue length does an incoming req see
system.mem_ctrls.rdQLenPdf::29                      0                       # What read queue length does an incoming req see
system.mem_ctrls.rdQLenPdf::30                      0                       # What read queue length does an incoming req see
system.mem_ctrls.rdQLenPdf::31                      0                       # What read queue length does an incoming req see
system.mem_ctrls.wrQLenPdf::0                       1                       # What write queue length does an incoming req see
system.mem_ctrls.wrQLenPdf::1                       1                       # What write queue length does an incoming req see
system.mem_ctrls.wrQLenPdf::2                       1                       # What write queue length does an incoming req see
system.mem_ctrls.wrQLenPdf::3                       1                       # What write queue length does an incoming req see
system.mem_ctrls.wrQLenPdf::4                       1                       # What write queue length does an incoming req see
system.mem_ctrls.wrQLenPdf::5                       1                       # What write queue length does an incoming req see
system.mem_ctrls.wrQLenPdf::6                       1                       # What write queue length does an incoming req see
system.mem_ctrls.wrQLenPdf::7                       1                       # What write queue length does an incoming req see
system.mem_ctrls.wrQLenPdf::8                       1                       # What write queue length does an incoming req see
system.mem_ctrls.wrQLenPdf::9                       1                       # What write queue length does an incoming req see
system.mem_ctrls.wrQLenPdf::10                      1                       # What write queue length does an incoming req see
system.mem_ctrls.wrQLenPdf::11                      1                       # What write queue length does an incoming req see
system.mem_ctrls.wrQLenPdf::12                      1                       # What write queue length does an incoming req see
system.mem_ctrls.wrQLenPdf::13                      1                       # What write queue length does an incoming req see
system.mem_ctrls.wrQLenPdf::14                      1                       # What write queue length does an incoming req see
system.mem_ctrls.wrQLenPdf::15                   4253                       # What write queue length does an incoming req see
system.mem_ctrls.wrQLenPdf::16                   4348                       # What write queue length does an incoming req see
system.mem_ctrls.wrQLenPdf::17                   8676                       # What write queue length does an incoming req see
system.mem_ctrls.wrQLenPdf::18                   8894                       # What write queue length does an incoming req see
system.mem_ctrls.wrQLenPdf::19                  11458                       # What write queue length does an incoming req see
system.mem_ctrls.wrQLenPdf::20                  11749                       # What write queue length does an incoming req see
system.mem_ctrls.wrQLenPdf::21                  11720                       # What write queue length does an incoming req see
system.mem_ctrls.wrQLenPdf::22                  11724                       # What write queue length does an incoming req see
system.mem_ctrls.wrQLenPdf::23                  11705                       # What write queue length does an incoming req see
system.mem_ctrls.wrQLenPdf::24                  12215                       # What write queue length does an incoming req see
system.mem_ctrls.wrQLenPdf::25                  13909                       # What write queue length does an incoming req see
system.mem_ctrls.wrQLenPdf::26                  13484                       # What write queue length does an incoming req see
system.mem_ctrls.wrQLenPdf::27                  11800                       # What write queue length does an incoming req see
system.mem_ctrls.wrQLenPdf::28                  11935                       # What write queue length does an incoming req see
system.mem_ctrls.wrQLenPdf::29                  11920                       # What write queue length does an incoming req see
system.mem_ctrls.wrQLenPdf::30                  11646                       # What write queue length does an incoming req see
system.mem_ctrls.wrQLenPdf::31                  11625                       # What write queue length does an incoming req see
system.mem_ctrls.wrQLenPdf::32                  11621                       # What write queue length does an incoming req see
system.mem_ctrls.wrQLenPdf::33                    555                       # What write queue length does an incoming req see
system.mem_ctrls.wrQLenPdf::34                      7                       # What write queue length does an incoming req see
system.mem_ctrls.wrQLenPdf::35                      3                       # What write queue length does an incoming req see
system.mem_ctrls.wrQLenPdf::36                      0                       # What write queue length does an incoming req see
system.mem_ctrls.wrQLenPdf::37                      0                       # What write queue length does an incoming req see
system.mem_ctrls.wrQLenPdf::38                      0                       # What write queue length does an incoming req see
system.mem_ctrls.wrQLenPdf::39                      0                       # What write queue length does an incoming req see
system.mem_ctrls.wrQLenPdf::40                      0                       # What write queue length does an incoming req see
system.mem_ctrls.wrQLenPdf::41                      0                       # What write queue length does an incoming req see
system.mem_ctrls.wrQLenPdf::42                      0                       # What write queue length does an incoming req see
system.mem_ctrls.wrQLenPdf::43                      0                       # What write queue length does an incoming req see
system.mem_ctrls.wrQLenPdf::44                      0                       # What write queue length does an incoming req see
system.mem_ctrls.wrQLenPdf::45                      0                       # What write queue length does an incoming req see
system.mem_ctrls.wrQLenPdf::46                      0                       # What write queue length does an incoming req see
system.mem_ctrls.wrQLenPdf::47                      0                       # What write queue length does an incoming req see
system.mem_ctrls.wrQLenPdf::48                      0                       # What write queue length does an incoming req see
system.mem_ctrls.wrQLenPdf::49                      0                       # What write queue length does an incoming req see
system.mem_ctrls.wrQLenPdf::50                      0                       # What write queue length does an incoming req see
system.mem_ctrls.wrQLenPdf::51                      0                       # What write queue length does an incoming req see
system.mem_ctrls.wrQLenPdf::52                      0                       # What write queue length does an incoming req see
system.mem_ctrls.wrQLenPdf::53                      0                       # What write queue length does an incoming req see
system.mem_ctrls.wrQLenPdf::54                      0                       # What write queue length does an incoming req see
system.mem_ctrls.wrQLenPdf::55                      0                       # What write queue length does an incoming req see
system.mem_ctrls.wrQLenPdf::56                      0                       # What write queue length does an incoming req see
system.mem_ctrls.wrQLenPdf::57                      0                       # What write queue length does an incoming req see
system.mem_ctrls.wrQLenPdf::58                      0                       # What write queue length does an incoming req see
system.mem_ctrls.wrQLenPdf::59                      0                       # What write queue length does an incoming req see
system.mem_ctrls.wrQLenPdf::60                      0                       # What write queue length does an incoming req see
system.mem_ctrls.wrQLenPdf::61                      0                       # What write queue length does an incoming req see
system.mem_ctrls.wrQLenPdf::62                      0                       # What write queue length does an incoming req see
system.mem_ctrls.wrQLenPdf::63                      0                       # What write queue length does an incoming req see
system.mem_ctrls.bytesPerActivate::samples       112427                       # Bytes accessed per row activation
system.mem_ctrls.bytesPerActivate::mean    279.413024                       # Bytes accessed per row activation
system.mem_ctrls.bytesPerActivate::gmean   186.822318                       # Bytes accessed per row activation
system.mem_ctrls.bytesPerActivate::stdev   313.624314                       # Bytes accessed per row activation
system.mem_ctrls.bytesPerActivate::0-127         5787      5.15%      5.15% # Bytes accessed per row activation
system.mem_ctrls.bytesPerActivate::128-255        77422     68.86%     74.01% # Bytes accessed per row activation
system.mem_ctrls.bytesPerActivate::256-383         7715      6.86%     80.87% # Bytes accessed per row activation
system.mem_ctrls.bytesPerActivate::384-511         2169      1.93%     82.80% # Bytes accessed per row activation
system.mem_ctrls.bytesPerActivate::512-639         1517      1.35%     84.15% # Bytes accessed per row activation
system.mem_ctrls.bytesPerActivate::640-767         1379      1.23%     85.38% # Bytes accessed per row activation
system.mem_ctrls.bytesPerActivate::768-895          852      0.76%     86.14% # Bytes accessed per row activation
system.mem_ctrls.bytesPerActivate::896-1023          858      0.76%     86.90% # Bytes accessed per row activation
system.mem_ctrls.bytesPerActivate::1024-1151        14728     13.10%    100.00% # Bytes accessed per row activation
system.mem_ctrls.bytesPerActivate::total       112427                       # Bytes accessed per row activation
system.mem_ctrls.rdPerTurnAround::samples        11613                       # Reads before turning the bus around for writes
system.mem_ctrls.rdPerTurnAround::mean      25.455868                       # Reads before turning the bus around for writes
system.mem_ctrls.rdPerTurnAround::gmean     21.668610                       # Reads before turning the bus around for writes
system.mem_ctrls.rdPerTurnAround::stdev     45.145566                       # Reads before turning the bus around for writes
system.mem_ctrls.rdPerTurnAround::0-127         11408     98.23%     98.23% # Reads before turning the bus around for writes
system.mem_ctrls.rdPerTurnAround::128-255          174      1.50%     99.73% # Reads before turning the bus around for writes
system.mem_ctrls.rdPerTurnAround::256-383           16      0.14%     99.87% # Reads before turning the bus around for writes
system.mem_ctrls.rdPerTurnAround::384-511            6      0.05%     99.92% # Reads before turning the bus around for writes
system.mem_ctrls.rdPerTurnAround::512-639            4      0.03%     99.96% # Reads before turning the bus around for writes
[...]
system.cpu.icache.ReadReq_avg_miss_latency::total 72524.074074                       # average ReadReq miss latency
system.cpu.icache.ReadReq_mshr_misses::.cpu.inst          540                       # number of ReadReq MSHR misses
system.cpu.icache.ReadReq_mshr_misses::total          540                       # number of ReadReq MSHR misses
system.cpu.icache.ReadReq_mshr_miss_latency::.cpu.inst     38623000                       # number of ReadReq MSHR miss cycles
system.cpu.icache.ReadReq_mshr_miss_latency::total     38623000                       # number of ReadReq MSHR miss cycles
system.cpu.icache.ReadReq_mshr_miss_rate::.cpu.inst     0.000067                       # mshr miss rate for ReadReq accesses
system.cpu.icache.ReadReq_mshr_miss_rate::total     0.000067                       # mshr miss rate for ReadReq accesses
system.cpu.icache.ReadReq_avg_mshr_miss_latency::.cpu.inst 71524.074074                       # average ReadReq mshr miss latency
system.cpu.icache.ReadReq_avg_mshr_miss_latency::total 71524.074074                       # average ReadReq mshr miss latency
system.cpu.icache.tags.pwrStateResidencyTicks::UNDEFINED  84626838500                       # Cumulative time (in ticks) in various power states
system.cpu.icache.tags.tagsinuse           204.288740                       # Cycle average of tags in use
system.cpu.icache.tags.total_refs             8051181                       # Total number of references to valid blocks.
system.cpu.icache.tags.sampled_refs               540                       # Sample count of references to valid blocks.
system.cpu.icache.tags.avg_refs          14909.594444                       # Average number of references to valid blocks.
system.cpu.icache.tags.warmup_cycle             92500                       # Cycle when the warmup percentage was hit.
system.cpu.icache.tags.occ_blocks::.cpu.inst   204.288740                       # Average occupied blocks per requestor
system.cpu.icache.tags.occ_percent::.cpu.inst     0.798003                       # Average percentage of cache occupancy
system.cpu.icache.tags.occ_percent::total     0.798003                       # Average percentage of cache occupancy
system.cpu.icache.tags.occ_task_id_blocks::1024          238                       # Occupied blocks per task id
system.cpu.icache.tags.age_task_id_blocks_1024::3           52                       # Occupied blocks per task id
system.cpu.icache.tags.age_task_id_blocks_1024::4          186                       # Occupied blocks per task id
system.cpu.icache.tags.occ_task_id_percent::1024     0.929688                       # Percentage of cache occupancy per task id
system.cpu.icache.tags.tag_accesses          16102902                       # Number of tag accesses
system.cpu.icache.tags.data_accesses         16102902                       # Number of data accesses
system.cpu.dtb.walker.pwrStateResidencyTicks::UNDEFINED  84626838500                       # Cumulative time (in ticks) in various power states
system.cpu.dtb.stage2_mmu.stage2_tlb.walker.pwrStateResidencyTicks::UNDEFINED  84626838500                       # Cumulative time (in ticks) in various power states
system.cpu.dcache.pwrStateResidencyTicks::UNDEFINED  84626838500                       # Cumulative time (in ticks) in various power states
system.cpu.dcache.demand_hits::.cpu.data     51317064                       # number of demand (read+write) hits
system.cpu.dcache.demand_hits::total         51317064                       # number of demand (read+write) hits
system.cpu.dcache.overall_hits::.cpu.data     51317664                       # number of overall hits
system.cpu.dcache.overall_hits::total        51317664                       # number of overall hits
system.cpu.dcache.demand_misses::.cpu.data       739912                       # number of demand (read+write) misses
system.cpu.dcache.demand_misses::total         739912                       # number of demand (read+write) misses
system.cpu.dcache.overall_misses::.cpu.data       747731                       # number of overall misses
system.cpu.dcache.overall_misses::total        747731                       # number of overall misses
system.cpu.dcache.demand_miss_latency::.cpu.data  23492485500                       # number of demand (read+write) miss cycles
system.cpu.dcache.demand_miss_latency::total  23492485500                       # number of demand (read+write) miss cycles
system.cpu.dcache.overall_miss_latency::.cpu.data  23492485500                       # number of overall miss cycles
system.cpu.dcache.overall_miss_latency::total  23492485500                       # number of overall miss cycles
system.cpu.dcache.demand_accesses::.cpu.data     52056976                       # number of demand (read+write) accesses
system.cpu.dcache.demand_accesses::total     52056976                       # number of demand (read+write) accesses
system.cpu.dcache.overall_accesses::.cpu.data     52065395                       # number of overall (read+write) accesses
system.cpu.dcache.overall_accesses::total     52065395                       # number of overall (read+write) accesses
system.cpu.dcache.demand_miss_rate::.cpu.data     0.014214                       # miss rate for demand accesses
system.cpu.dcache.demand_miss_rate::total     0.014214                       # miss rate for demand accesses
system.cpu.dcache.overall_miss_rate::.cpu.data     0.014361                       # miss rate for overall accesses
system.cpu.dcache.overall_miss_rate::total     0.014361                       # miss rate for overall accesses
system.cpu.dcache.demand_avg_miss_latency::.cpu.data 31750.377748                       # average overall miss latency
system.cpu.dcache.demand_avg_miss_latency::total 31750.377748                       # average overall miss latency
system.cpu.dcache.overall_avg_miss_latency::.cpu.data 31418.365027                       # average overall miss latency
system.cpu.dcache.overall_avg_miss_latency::total 31418.365027                       # average overall miss latency
system.cpu.dcache.blocked_cycles::no_mshrs            0                       # number of cycles access was blocked
system.cpu.dcache.blocked_cycles::no_targets            0                       # number of cycles access was blocked
system.cpu.dcache.blocked::no_mshrs                 0                       # number of cycles access was blocked
system.cpu.dcache.blocked::no_targets               0                       # number of cycles access was blocked
system.cpu.dcache.avg_blocked_cycles::no_mshrs          nan                       # average number of cycles each access was blocked
system.cpu.dcache.avg_blocked_cycles::no_targets          nan                       # average number of cycles each access was blocked
system.cpu.dcache.writebacks::.writebacks       652737                       # number of writebacks
system.cpu.dcache.writebacks::total            652737                       # number of writebacks
system.cpu.dcache.demand_mshr_hits::.cpu.data        35718                       # number of demand (read+write) MSHR hits
system.cpu.dcache.demand_mshr_hits::total        35718                       # number of demand (read+write) MSHR hits
system.cpu.dcache.overall_mshr_hits::.cpu.data        35718                       # number of overall MSHR hits
system.cpu.dcache.overall_mshr_hits::total        35718                       # number of overall MSHR hits
system.cpu.dcache.demand_mshr_misses::.cpu.data       704194                       # number of demand (read+write) MSHR misses
system.cpu.dcache.demand_mshr_misses::total       704194                       # number of demand (read+write) MSHR misses
system.cpu.dcache.overall_mshr_misses::.cpu.data       708149                       # number of overall MSHR misses
system.cpu.dcache.overall_mshr_misses::total       708149                       # number of overall MSHR misses
system.cpu.dcache.demand_mshr_miss_latency::.cpu.data  20346520500                       # number of demand (read+write) MSHR miss cycles
system.cpu.dcache.demand_mshr_miss_latency::total  20346520500                       # number of demand (read+write) MSHR miss cycles
system.cpu.dcache.overall_mshr_miss_latency::.cpu.data  20677465000                       # number of overall MSHR miss cycles
system.cpu.dcache.overall_mshr_miss_latency::total  20677465000                       # number of overall MSHR miss cycles
system.cpu.dcache.demand_mshr_miss_rate::.cpu.data     0.013527                       # mshr miss rate for demand accesses
system.cpu.dcache.demand_mshr_miss_rate::total     0.013527                       # mshr miss rate for demand accesses
system.cpu.dcache.overall_mshr_miss_rate::.cpu.data     0.013601                       # mshr miss rate for overall accesses
system.cpu.dcache.overall_mshr_miss_rate::total     0.013601                       # mshr miss rate for overall accesses
system.cpu.dcache.demand_avg_mshr_miss_latency::.cpu.data 28893.345442                       # average overall mshr miss latency
system.cpu.dcache.demand_avg_mshr_miss_latency::total 28893.345442                       # average overall mshr miss latency
system.cpu.dcache.overall_avg_mshr_miss_latency::.cpu.data 29199.313986                       # average overall mshr miss latency
system.cpu.dcache.overall_avg_mshr_miss_latency::total 29199.313986                       # average overall mshr miss latency
system.cpu.dcache.replacements                 707636                       # number of replacements
system.cpu.dcache.ReadReq_hits::.cpu.data     40689042                       # number of ReadReq hits
system.cpu.dcache.ReadReq_hits::total        40689042                       # number of ReadReq hits
system.cpu.dcache.ReadReq_misses::.cpu.data       417842                       # number of ReadReq misses
system.cpu.dcache.ReadReq_misses::total        417842                       # number of ReadReq misses
system.cpu.dcache.ReadReq_miss_latency::.cpu.data   9140447000                       # number of ReadReq miss cycles
system.cpu.dcache.ReadReq_miss_latency::total   9140447000                       # number of ReadReq miss cycles
system.cpu.dcache.ReadReq_accesses::.cpu.data     41106884                       # number of ReadReq accesses(hits+misses)
system.cpu.dcache.ReadReq_accesses::total     41106884                       # number of ReadReq accesses(hits+misses)
system.cpu.dcache.ReadReq_miss_rate::.cpu.data     0.010165                       # miss rate for ReadReq accesses
system.cpu.dcache.ReadReq_miss_rate::total     0.010165                       # miss rate for ReadReq accesses
system.cpu.dcache.ReadReq_avg_miss_latency::.cpu.data 21875.366765                       # average ReadReq miss latency
system.cpu.dcache.ReadReq_avg_miss_latency::total 21875.366765                       # average ReadReq miss latency
system.cpu.dcache.ReadReq_mshr_hits::.cpu.data         2617                       # number of ReadReq MSHR hits
system.cpu.dcache.ReadReq_mshr_hits::total         2617                       # number of ReadReq MSHR hits
system.cpu.dcache.ReadReq_mshr_misses::.cpu.data       415225                       # number of ReadReq MSHR misses
system.cpu.dcache.ReadReq_mshr_misses::total       415225                       # number of ReadReq MSHR misses
system.cpu.dcache.ReadReq_mshr_miss_latency::.cpu.data   8587698000                       # number of ReadReq MSHR miss cycles
system.cpu.dcache.ReadReq_mshr_miss_latency::total   8587698000                       # number of ReadReq MSHR miss cycles
system.cpu.dcache.ReadReq_mshr_miss_rate::.cpu.data     0.010101                       # mshr miss rate for ReadReq accesses
system.cpu.dcache.ReadReq_mshr_miss_rate::total     0.010101                       # mshr miss rate for ReadReq accesses
system.cpu.dcache.ReadReq_avg_mshr_miss_latency::.cpu.data 20682.035041                       # average ReadReq mshr miss latency
system.cpu.dcache.ReadReq_avg_mshr_miss_latency::total 20682.035041                       # average ReadReq mshr miss latency
system.cpu.dcache.WriteReq_hits::.cpu.data     10628022                       # number of WriteReq hits
system.cpu.dcache.WriteReq_hits::total       10628022                       # number of WriteReq hits
system.cpu.dcache.WriteReq_misses::.cpu.data       322070                       # number of WriteReq misses
system.cpu.dcache.WriteReq_misses::total       322070                       # number of WriteReq misses
system.cpu.dcache.WriteReq_miss_latency::.cpu.data  14352038500                       # number of WriteReq miss cycles
system.cpu.dcache.WriteReq_miss_latency::total  14352038500                       # number of WriteReq miss cycles
system.cpu.dcache.WriteReq_accesses::.cpu.data     10950092                       # number of WriteReq accesses(hits+misses)
system.cpu.dcache.WriteReq_accesses::total     10950092                       # number of WriteReq accesses(hits+misses)
system.cpu.dcache.WriteReq_miss_rate::.cpu.data     0.029413                       # miss rate for WriteReq accesses
system.cpu.dcache.WriteReq_miss_rate::total     0.029413                       # miss rate for WriteReq accesses
system.cpu.dcache.WriteReq_avg_miss_latency::.cpu.data 44561.860776                       # average WriteReq miss latency
system.cpu.dcache.WriteReq_avg_miss_latency::total 44561.860776                       # average WriteReq miss latency
system.cpu.dcache.WriteReq_mshr_hits::.cpu.data        33101                       # number of WriteReq MSHR hits
system.cpu.dcache.WriteReq_mshr_hits::total        33101                       # number of WriteReq MSHR hits
system.cpu.dcache.WriteReq_mshr_misses::.cpu.data       288969                       # number of WriteReq MSHR misses
system.cpu.dcache.WriteReq_mshr_misses::total       288969                       # number of WriteReq MSHR misses
system.cpu.dcache.WriteReq_mshr_miss_latency::.cpu.data  11758822500                       # number of WriteReq MSHR miss cycles
system.cpu.dcache.WriteReq_mshr_miss_latency::total  11758822500                       # number of WriteReq MSHR miss cycles
system.cpu.dcache.WriteReq_mshr_miss_rate::.cpu.data     0.026390                       # mshr miss rate for WriteReq accesses
system.cpu.dcache.WriteReq_mshr_miss_rate::total     0.026390                       # mshr miss rate for WriteReq accesses
system.cpu.dcache.WriteReq_avg_mshr_miss_latency::.cpu.data 40692.332049                       # average WriteReq mshr miss latency
system.cpu.dcache.WriteReq_avg_mshr_miss_latency::total 40692.332049                       # average WriteReq mshr miss latency
system.cpu.dcache.SoftPFReq_hits::.cpu.data          600                       # number of SoftPFReq hits
system.cpu.dcache.SoftPFReq_hits::total           600                       # number of SoftPFReq hits
system.cpu.dcache.SoftPFReq_misses::.cpu.data         7819                       # number of SoftPFReq misses
system.cpu.dcache.SoftPFReq_misses::total         7819                       # number of SoftPFReq misses
system.cpu.dcache.SoftPFReq_accesses::.cpu.data         8419                       # number of SoftPFReq accesses(hits+misses)
system.cpu.dcache.SoftPFReq_accesses::total         8419                       # number of SoftPFReq accesses(hits+misses)
system.cpu.dcache.SoftPFReq_miss_rate::.cpu.data     0.928733                       # miss rate for SoftPFReq accesses
system.cpu.dcache.SoftPFReq_miss_rate::total     0.928733                       # miss rate for SoftPFReq accesses
system.cpu.dcache.SoftPFReq_mshr_misses::.cpu.data         3955                       # number of SoftPFReq MSHR misses
system.cpu.dcache.SoftPFReq_mshr_misses::total         3955                       # number of SoftPFReq MSHR misses
system.cpu.dcache.SoftPFReq_mshr_miss_latency::.cpu.data    330944500                       # number of SoftPFReq MSHR miss cycles
system.cpu.dcache.SoftPFReq_mshr_miss_latency::total    330944500                       # number of SoftPFReq MSHR miss cycles
system.cpu.dcache.SoftPFReq_mshr_miss_rate::.cpu.data     0.469771                       # mshr miss rate for SoftPFReq accesses
system.cpu.dcache.SoftPFReq_mshr_miss_rate::total     0.469771                       # mshr miss rate for SoftPFReq accesses
system.cpu.dcache.SoftPFReq_avg_mshr_miss_latency::.cpu.data 83677.496839                       # average SoftPFReq mshr miss latency
system.cpu.dcache.SoftPFReq_avg_mshr_miss_latency::total 83677.496839                       # average SoftPFReq mshr miss latency
system.cpu.dcache.LoadLockedReq_hits::.cpu.data           38                       # number of LoadLockedReq hits
system.cpu.dcache.LoadLockedReq_hits::total           38                       # number of LoadLockedReq hits
system.cpu.dcache.LoadLockedReq_accesses::.cpu.data           38                       # number of LoadLockedReq accesses(hits+misses)
system.cpu.dcache.LoadLockedReq_accesses::total           38                       # number of LoadLockedReq accesses(hits+misses)
system.cpu.dcache.StoreCondReq_hits::.cpu.data           38                       # number of StoreCondReq hits
system.cpu.dcache.StoreCondReq_hits::total           38                       # number of StoreCondReq hits
system.cpu.dcache.StoreCondReq_accesses::.cpu.data           38                       # number of StoreCondReq accesses(hits+misses)
system.cpu.dcache.StoreCondReq_accesses::total           38                       # number of StoreCondReq accesses(hits+misses)
system.cpu.dcache.tags.pwrStateResidencyTicks::UNDEFINED  84626838500                       # Cumulative time (in ticks) in various power states
system.cpu.dcache.tags.tagsinuse           504.393304                       # Cycle average of tags in use
system.cpu.dcache.tags.total_refs            52025888                       # Total number of references to valid blocks.
system.cpu.dcache.tags.sampled_refs            708148                       # Sample count of references to valid blocks.
system.cpu.dcache.tags.avg_refs             73.467535                       # Average number of references to valid blocks.
system.cpu.dcache.tags.warmup_cycle            186500                       # Cycle when the warmup percentage was hit.
system.cpu.dcache.tags.occ_blocks::.cpu.data   504.393304                       # Average occupied blocks per requestor
system.cpu.dcache.tags.occ_percent::.cpu.data     0.985143                       # Average percentage of cache occupancy
system.cpu.dcache.tags.occ_percent::total     0.985143                       # Average percentage of cache occupancy
system.cpu.dcache.tags.occ_task_id_blocks::1024          512                       # Occupied blocks per task id
system.cpu.dcache.tags.age_task_id_blocks_1024::0          199                       # Occupied blocks per task id
system.cpu.dcache.tags.age_task_id_blocks_1024::1          217                       # Occupied blocks per task id
system.cpu.dcache.tags.age_task_id_blocks_1024::2           95                       # Occupied blocks per task id
system.cpu.dcache.tags.age_task_id_blocks_1024::3            1                       # Occupied blocks per task id
system.cpu.dcache.tags.occ_task_id_percent::1024            1                       # Percentage of cache occupancy per task id
system.cpu.dcache.tags.tag_accesses         104839090                       # Number of tag accesses
system.cpu.dcache.tags.data_accesses        104839090                       # Number of data accesses
system.cpu.itb.walker.pwrStateResidencyTicks::UNDEFINED  84626838500                       # Cumulative time (in ticks) in various power states
system.cpu.itb.stage2_mmu.stage2_tlb.walker.pwrStateResidencyTicks::UNDEFINED  84626838500                       # Cumulative time (in ticks) in various power states

---------- End Simulation Statistics   ----------
