
---------- Begin Simulation Statistics ----------
final_tick                                79926784000                       # Number of ticks from beginning of simulation (restored from checkpoints and never reset)
host_inst_rate                                 294591                       # Simulator instruction rate (inst/s)
host_mem_usage                                 693812                       # Number of bytes of host memory used
host_op_rate                                   295170                       # Simulator op (including micro ops) rate (op/s)
host_seconds                                   339.45                       # Real time elapsed on the host
host_tick_rate                              235457193                       # Simulator tick rate (ticks/s)
sim_freq                                 1000000000000                       # Frequency of simulated ticks
sim_insts                                   100000001                       # Number of instructions simulated
sim_ops                                     100196363                       # Number of ops (including micro ops) simulated
sim_seconds                                  0.079927                       # Number of seconds simulated
sim_ticks                                 79926784000                       # Number of ticks simulated
system.cpu.branchPred.BTBCorrect                    0                       # Number of correct BTB predictions (this stat may not work properly.
system.cpu.branchPred.BTBHitPct             99.616952                       # BTB Hit Percentage
system.cpu.branchPred.BTBHits                 2095593                       # Number of BTB hits
system.cpu.branchPred.BTBLookups              2103651                       # Number of BTB lookups
system.cpu.branchPred.RASInCorrect                  5                       # Number of incorrect RAS predictions.
system.cpu.branchPred.condIncorrect             81389                       # Number of conditional branches incorrect
system.cpu.branchPred.condPredicted           3728199                       # Number of conditional branches predicted
system.cpu.branchPred.indirectHits                292                       # Number of indirect target hits.
system.cpu.branchPred.indirectLookups             998                       # Number of indirect predictor lookups.
system.cpu.branchPred.indirectMisses              706                       # Number of indirect misses.
system.cpu.branchPred.lookups                 4478298                       # Number of BP lookups
system.cpu.branchPred.usedRAS                   65354                       # Number of times the RAS was used to get a target.
system.cpu.branchPredindirectMispredicted          168                       # Number of mispredicted indirect branches.
system.cpu.committedInsts                   100000001                       # Number of instructions committed
system.cpu.committedOps                     100196363                       # Number of ops (including micro ops) committed
system.cpu.cpi                               1.598536                       # CPI: cycles per instruction
system.cpu.discardedOps                        190743                       # Number of ops (including micro ops) which were discarded before commit
system.cpu.dtb.accesses                             0                       # DTB accesses
system.cpu.dtb.align_faults                         0                       # Number of TLB faults due to alignment restrictions
system.cpu.dtb.domain_faults                        0                       # Number of TLB faults due to domain restrictions
system.cpu.dtb.flush_entries                        0                       # Number of entries that have been flushed from TLB
system.cpu.dtb.flush_tlb                            0                       # Number of times complete TLB was flushed
system.cpu.dtb.flush_tlb_asid                       0                       # Number of times TLB was flushed by ASID
system.cpu.dtb.flush_tlb_mva                        0                       # Number of times TLB was flushed by MVA
system.cpu.dtb.flush_tlb_mva_asid                   0                       # Number of times TLB was flushed by MVA & ASID
system.cpu.dtb.hits                                 0                       # DTB hits
system.cpu.dtb.inst_accesses                        0                       # ITB inst accesses
system.cpu.dtb.inst_hits                            0                       # ITB inst hits
system.cpu.dtb.inst_misses                          0                       # ITB inst misses
system.cpu.dtb.misses                               0                       # DTB misses
system.cpu.dtb.perms_faults                         0                       # Number of TLB faults due to permissions restrictions
system.cpu.dtb.prefetch_faults                      0                       # Number of TLB faults due to prefetch
system.cpu.dtb.read_accesses                        0                       # DTB read accesses
system.cpu.dtb.read_hits                            0                       # DTB read hits
system.cpu.dtb.read_misses                          0                       # DTB read misses
system.cpu.dtb.stage2_mmu.stage2_tlb.accesses            0                       # DTB accesses
system.cpu.dtb.stage2_mmu.stage2_tlb.align_faults            0                       # Number of TLB faults due to alignment restrictions
system.cpu.dtb.stage2_mmu.stage2_tlb.domain_faults            0                       # Number of TLB faults due to domain restrictions
system.cpu.dtb.stage2_mmu.stage2_tlb.flush_entries            0                       # Number of entries that have been flushed from TLB
system.cpu.dtb.stage2_mmu.stage2_tlb.flush_tlb            0                       # Number of times complete TLB was flushed
system.cpu.dtb.stage2_mmu.stage2_tlb.flush_tlb_asid            0                       # Number of times TLB was flushed by ASID
system.cpu.dtb.stage2_mmu.stage2_tlb.flush_tlb_mva            0                       # Number of times TLB was flushed by MVA
system.cpu.dtb.stage2_mmu.stage2_tlb.flush_tlb_mva_asid            0                       # Number of times TLB was flushed by MVA & ASID
system.cpu.dtb.stage2_mmu.stage2_tlb.hits            0                       # DTB hits
system.cpu.dtb.stage2_mmu.stage2_tlb.inst_accesses            0                       # ITB inst accesses
system.cpu.dtb.stage2_mmu.stage2_tlb.inst_hits            0                       # ITB inst hits
system.cpu.dtb.stage2_mmu.stage2_tlb.inst_misses            0                       # ITB inst misses
system.cpu.dtb.stage2_mmu.stage2_tlb.misses            0                       # DTB misses
system.cpu.dtb.stage2_mmu.stage2_tlb.perms_faults            0                       # Number of TLB faults due to permissions restrictions
system.cpu.dtb.stage2_mmu.stage2_tlb.prefetch_faults            0                       # Number of TLB faults due to prefetch
system.cpu.dtb.stage2_mmu.stage2_tlb.read_accesses            0                       # DTB read accesses
system.cpu.dtb.stage2_mmu.stage2_tlb.read_hits            0                       # DTB read hits
system.cpu.dtb.stage2_mmu.stage2_tlb.read_misses            0                       # DTB read misses
system.cpu.dtb.stage2_mmu.stage2_tlb.walker.walkRequestOrigin_Requested::Data            0                       # Table walker requests started/completed, data/inst
system.cpu.dtb.stage2_mmu.stage2_tlb.walker.walkRequestOrigin_Requested::Inst            0                       # Table walker requests started/completed, data/inst
system.cpu.dtb.stage2_mmu.stage2_tlb.walker.walkRequestOrigin_Requested::total            0                       # Table walker requests started/completed, data/inst
system.cpu.dtb.stage2_mmu.stage2_tlb.walker.walkRequestOrigin_Completed::Data            0                       # Table walker requests started/completed, data/inst
system.cpu.dtb.stage2_mmu.stage2_tlb.walker.walkRequestOrigin_Completed::Inst            0                       # Table walker requests started/completed, data/inst
system.cpu.dtb.stage2_mmu.stage2_tlb.walker.walkRequestOrigin_Completed::total            0                       # Table walker requests started/completed, data/inst
system.cpu.dtb.stage2_mmu.stage2_tlb.walker.walkRequestOrigin::total            0                       # Table walker requests started/completed, data/inst
system.cpu.dtb.stage2_mmu.stage2_tlb.walker.walks            0                       # Table walker walks requested
system.cpu.dtb.stage2_mmu.stage2_tlb.write_accesses            0                       # DTB write accesses
system.cpu.dtb.stage2_mmu.stage2_tlb.write_hits            0                       # DTB write hits
system.cpu.dtb.stage2_mmu.stage2_tlb.write_misses            0                       # DTB write misses
system.cpu.dtb.walker.walkRequestOrigin_Requested::Data            0                       # Table walker requests started/completed, data/inst
system.cpu.dtb.walker.walkRequestOrigin_Requested::Inst            0                       # Table walker requests started/completed, data/inst
system.cpu.dtb.walker.walkRequestOrigin_Requested::total            0                       # Table walker requests started/completed, data/inst
system.cpu.dtb.walker.walkRequestOrigin_Completed::Data            0                       # Table walker requests started/completed, data/inst
system.cpu.dtb.walker.walkRequestOrigin_Completed::Inst            0                       # Table walker requests started/completed, data/inst
system.cpu.dtb.walker.walkRequestOrigin_Completed::total            0                       # Table walker requests started/completed, data/inst
system.cpu.dtb.walker.walkRequestOrigin::total            0                       # Table walker requests started/completed, data/inst
system.cpu.dtb.walker.walks                         0                       # Table walker walks requested
system.cpu.dtb.write_accesses                       0                       # DTB write accesses
system.cpu.dtb.write_hits                           0                       # DTB write hits
system.cpu.dtb.write_misses                         0                       # DTB write misses
system.cpu.fetch2.amo_instructions                  0                       # Number of memory atomic instructions successfully decoded
system.cpu.fetch2.fp_instructions                   0                       # Number of floating point instructions successfully decoded
system.cpu.fetch2.int_instructions           42610466                       # Number of integer instructions successfully decoded
system.cpu.fetch2.load_instructions          43403213                       # Number of memory load instructions successfully decoded
system.cpu.fetch2.store_instructions         11001561                       # Number of memory store instructions successfully decoded
system.cpu.fetch2.vec_instructions                  0                       # Number of SIMD instructions successfully decoded
system.cpu.idleCycles                        27672114                       # Total number of cycles that the object has spent stopped
system.cpu.ipc                               0.625573                       # IPC: instructions per cycle
system.cpu.itb.accesses                             0                       # DTB accesses
system.cpu.itb.align_faults                         0                       # Number of TLB faults due to alignment restrictions
system.cpu.itb.domain_faults                        0                       # Number of TLB faults due to domain restrictions
system.cpu.itb.flush_entries                        0                       # Number of entries that have been flushed from TLB
system.cpu.itb.flush_tlb                            0                       # Number of times complete TLB was flushed
system.cpu.itb.flush_tlb_asid                       0                       # Number of times TLB was flushed by ASID
system.cpu.itb.flush_tlb_mva                        0                       # Number of times TLB was flushed by MVA
system.cpu.itb.flush_tlb_mva_asid                   0                       # Number of times TLB was flushed by MVA & ASID
system.cpu.itb.hits                                 0                       # DTB hits
system.cpu.itb.inst_accesses                        0                       # ITB inst accesses
system.cpu.itb.inst_hits                            0                       # ITB inst hits
system.cpu.itb.inst_misses                          0                       # ITB inst misses
system.cpu.itb.misses                               0                       # DTB misses
system.cpu.itb.perms_faults                         0                       # Number of TLB faults due to permissions restrictions
system.cpu.itb.prefetch_faults                      0                       # Number of TLB faults due to prefetch
system.cpu.itb.read_accesses                        0                       # DTB read accesses
system.cpu.itb.read_hits                            0                       # DTB read hits
system.cpu.itb.read_misses                          0                       # DTB read misses
system.cpu.itb.stage2_mmu.stage2_tlb.accesses            0                       # DTB accesses
system.cpu.itb.stage2_mmu.stage2_tlb.align_faults            0                       # Number of TLB faults due to alignment restrictions
system.cpu.itb.stage2_mmu.stage2_tlb.domain_faults            0                       # Number of TLB faults due to domain restrictions
system.cpu.itb.stage2_mmu.stage2_tlb.flush_entries            0                       # Number of entries that have been flushed from TLB
system.cpu.itb.stage2_mmu.stage2_tlb.flush_tlb            0                       # Number of times complete TLB was flushed
system.cpu.itb.stage2_mmu.stage2_tlb.flush_tlb_asid            0                       # Number of times TLB was flushed by ASID
system.cpu.itb.stage2_mmu.stage2_tlb.flush_tlb_mva            0                       # Number of times TLB was flushed by MVA
system.cpu.itb.stage2_mmu.stage2_tlb.flush_tlb_mva_asid            0                       # Number of times TLB was flushed by MVA & ASID
system.cpu.itb.stage2_mmu.stage2_tlb.hits            0                       # DTB hits
system.cpu.itb.stage2_mmu.stage2_tlb.inst_accesses            0                       # ITB inst accesses
system.cpu.itb.stage2_mmu.stage2_tlb.inst_hits            0                       # ITB inst hits
system.cpu.itb.stage2_mmu.stage2_tlb.inst_misses            0                       # ITB inst misses
system.cpu.itb.stage2_mmu.stage2_tlb.misses            0                       # DTB misses
system.cpu.itb.stage2_mmu.stage2_tlb.perms_faults            0                       # Number of TLB faults due to permissions restrictions
system.cpu.itb.stage2_mmu.stage2_tlb.prefetch_faults            0                       # Number of TLB faults due to prefetch
system.cpu.itb.stage2_mmu.stage2_tlb.read_accesses            0                       # DTB read accesses
system.cpu.itb.stage2_mmu.stage2_tlb.read_hits            0                       # DTB read hits
system.cpu.itb.stage2_mmu.stage2_tlb.read_misses            0                       # DTB read misses
system.cpu.itb.stage2_mmu.stage2_tlb.walker.walkRequestOrigin_Requested::Data            0                       # Table walker requests started/completed, data/inst
system.cpu.itb.stage2_mmu.stage2_tlb.walker.walkRequestOrigin_Requested::Inst            0                       # Table walker requests started/completed, data/inst
system.cpu.itb.stage2_mmu.stage2_tlb.walker.walkRequestOrigin_Requested::total            0                       # Table walker requests started/completed, data/inst
system.cpu.itb.stage2_mmu.stage2_tlb.walker.walkRequestOrigin_Completed::Data            0                       # Table walker requests started/completed, data/inst
system.cpu.itb.stage2_mmu.stage2_tlb.walker.walkRequestOrigin_Completed::Inst            0                       # Table walker requests started/completed, data/inst
system.cpu.itb.stage2_mmu.stage2_tlb.walker.walkRequestOrigin_Completed::total            0                       # Table walker requests started/completed, data/inst
system.cpu.itb.stage2_mmu.stage2_tlb.walker.walkRequestOrigin::total            0                       # Table walker requests started/completed, data/inst
system.cpu.itb.stage2_mmu.stage2_tlb.walker.walks            0                       # Table walker walks requested
system.cpu.itb.stage2_mmu.stage2_tlb.write_accesses            0                       # DTB write accesses
system.cpu.itb.stage2_mmu.stage2_tlb.write_hits            0                       # DTB write hits
system.cpu.itb.stage2_mmu.stage2_tlb.write_misses            0                       # DTB write misses
system.cpu.itb.walker.walkRequestOrigin_Requested::Data            0                       # Table walker requests started/completed, data/inst
system.cpu.itb.walker.walkRequestOrigin_Requested::Inst            0                       # Table walker requests started/completed, data/inst
system.cpu.itb.walker.walkRequestOrigin_Requested::total            0                       # Table walker requests started/completed, data/inst
system.cpu.itb.walker.walkRequestOrigin_Completed::Data            0                       # Table walker requests started/completed, data/inst
system.cpu.itb.walker.walkRequestOrigin_Completed::Inst            0                       # Table walker requests started/completed, data/inst
system.cpu.itb.walker.walkRequestOrigin_Completed::total            0                       # Table walker requests started/completed, data/inst
system.cpu.itb.walker.walkRequestOrigin::total            0                       # Table walker requests started/completed, data/inst
system.cpu.itb.walker.walks                         0                       # Table walker walks requested
system.cpu.itb.write_accesses                       0                       # DTB write accesses
system.cpu.itb.write_hits                           0                       # DTB write hits
system.cpu.itb.write_misses                         0                       # DTB write misses
system.cpu.numCycles                        159853568                       # number of cpu cycles simulated
system.cpu.numFetchSuspends                         0                       # Number of times Execute suspended instruction fetching
system.cpu.numWorkItemsCompleted                    0                       # number of work items this cpu completed
system.cpu.numWorkItemsStarted                      0                       # number of work items this cpu started
system.cpu.op_class_0::No_OpClass                   0      0.00%      0.00% # Class of committed instruction
system.cpu.op_class_0::IntAlu                46531400     46.44%     46.44% # Class of committed instruction
system.cpu.op_class_0::IntMult                  20720      0.02%     46.46% # Class of committed instruction
system.cpu.op_class_0::IntDiv                       0      0.00%     46.46% # Class of committed instruction
system.cpu.op_class_0::FloatAdd                     0      0.00%     46.46% # Class of committed instruction
system.cpu.op_class_0::FloatCmp                     0      0.00%     46.46% # Class of committed instruction
system.cpu.op_class_0::FloatCvt                     0      0.00%     46.46% # Class of committed instruction
system.cpu.op_class_0::FloatMult                    0      0.00%     46.46% # Class of committed instruction
system.cpu.op_class_0::FloatMultAcc                 0      0.00%     46.46% # Class of committed instruction
system.cpu.op_class_0::FloatDiv                     0      0.00%     46.46% # Class of committed instruction
system.cpu.op_class_0::FloatMisc                    0      0.00%     46.46% # Class of committed instruction
system.cpu.op_class_0::FloatSqrt                    0      0.00%     46.46% # Class of committed instruction
system.cpu.op_class_0::SimdAdd                      0      0.00%     46.46% # Class of committed instruction
system.cpu.op_class_0::SimdAddAcc                   0      0.00%     46.46% # Class of committed instruction
system.cpu.op_class_0::SimdAlu                      0      0.00%     46.46% # Class of committed instruction
system.cpu.op_class_0::SimdCmp                      0      0.00%     46.46% # Class of committed instruction
system.cpu.op_class_0::SimdCvt                      0      0.00%     46.46% # Class of committed instruction
system.cpu.op_class_0::SimdMisc                     0      0.00%     46.46% # Class of committed instruction
system.cpu.op_class_0::SimdMult                     0      0.00%     46.46% # Class of committed instruction
system.cpu.op_class_0::SimdMultAcc                  0      0.00%     46.46% # Class of committed instruction
system.cpu.op_class_0::SimdShift                    0      0.00%     46.46% # Class of committed instruction
system.cpu.op_class_0::SimdShiftAcc                 0      0.00%     46.46% # Class of committed instruction
system.cpu.op_class_0::SimdDiv                      0      0.00%     46.46% # Class of committed instruction
system.cpu.op_class_0::SimdSqrt                     0      0.00%     46.46% # Class of committed instruction
system.cpu.op_class_0::SimdFloatAdd                 0      0.00%     46.46% # Class of committed instruction
system.cpu.op_class_0::SimdFloatAlu                 0      0.00%     46.46% # Class of committed instruction
system.cpu.op_class_0::SimdFloatCmp                 0      0.00%     46.46% # Class of committed instruction
system.cpu.op_class_0::SimdFloatCvt                 0      0.00%     46.46% # Class of committed instruction
system.cpu.op_class_0::SimdFloatDiv                 0      0.00%     46.46% # Class of committed instruction
system.cpu.op_class_0::SimdFloatMisc               18      0.00%     46.46% # Class of committed instruction
system.cpu.op_class_0::SimdFloatMult                0      0.00%     46.46% # Class of committed instruction
system.cpu.op_class_0::SimdFloatMultAcc             0      0.00%     46.46% # Class of committed instruction
system.cpu.op_class_0::SimdFloatSqrt                0      0.00%     46.46% # Class of committed instruction
system.cpu.op_class_0::SimdReduceAdd                0      0.00%     46.46% # Class of committed instruction
system.cpu.op_class_0::SimdReduceAlu                0      0.00%     46.46% # Class of committed instruction
system.cpu.op_class_0::SimdReduceCmp                0      0.00%     46.46% # Class of committed instruction
system.cpu.op_class_0::SimdFloatReduceAdd            0      0.00%     46.46% # Class of committed instruction
system.cpu.op_class_0::SimdFloatReduceCmp            0      0.00%     46.46% # Class of committed instruction
system.cpu.op_class_0::SimdAes                      0      0.00%     46.46% # Class of committed instruction
system.cpu.op_class_0::SimdAesMix                   0      0.00%     46.46% # Class of committed instruction
system.cpu.op_class_0::SimdSha1Hash                 0      0.00%     46.46% # Class of committed instruction
system.cpu.op_class_0::SimdSha1Hash2                0      0.00%     46.46% # Class of committed instruction
system.cpu.op_class_0::SimdSha256Hash               0      0.00%     46.46% # Class of committed instruction
system.cpu.op_class_0::SimdSha256Hash2              0      0.00%     46.46% # Class of committed instruction
system.cpu.op_class_0::SimdShaSigma2                0      0.00%     46.46% # Class of committed instruction
system.cpu.op_class_0::SimdShaSigma3                0      0.00%     46.46% # Class of committed instruction
system.cpu.op_class_0::SimdPredAlu                  0      0.00%     46.46% # Class of committed instruction
system.cpu.op_class_0::MemRead               42693601     42.61%     89.07% # Class of committed instruction
system.cpu.op_class_0::MemWrite              10950624     10.93%    100.00% # Class of committed instruction
system.cpu.op_class_0::FloatMemRead                 0      0.00%    100.00% # Class of committed instruction
system.cpu.op_class_0::FloatMemWrite                0      0.00%    100.00% # Class of committed instruction
system.cpu.op_class_0::IprAccess                    0      0.00%    100.00% # Class of committed instruction
system.cpu.op_class_0::InstPrefetch                 0      0.00%    100.00% # Class of committed instruction
system.cpu.op_class_0::total                100196363                       # Class of committed instruction
system.cpu.tickCycles                       132181454                       # Number of cycles that the object actually ticked
system.cpu.workload.numSyscalls                    84                       # Number of system calls
system.membus.snoop_filter.hit_multi_requests            0                       # Number of requests hitting in the snoop filter with multiple (>1) holders of the requested data.
system.membus.snoop_filter.hit_multi_snoops            0                       # Number of snoops hitting in the snoop filter with multiple (>1) holders of the requested data.
system.membus.snoop_filter.hit_single_requests        75865                       # Number of requests hitting in the snoop filter with a single holder of the requested data.
system.membus.snoop_filter.hit_single_snoops            0                       # Number of snoops hitting in the snoop filter with a single holder of the requested data.
system.membus.snoop_filter.tot_requests        184655                       # Total number of requests made to the snoop filter.
system.membus.snoop_filter.tot_snoops               0                       # Total number of snoops made to the snoop filter.
system.tol2bus.snoop_filter.hit_multi_requests           82                       # Number of requests hitting in the snoop filter with multiple (>1) holders of the requested data.
system.tol2bus.snoop_filter.hit_multi_snoops            0                       # Number of snoops hitting in the snoop filter with multiple (>1) holders of the requested data.
system.tol2bus.snoop_filter.hit_single_requests       432077                       # Number of requests hitting in the snoop filter with a single holder of the requested data.
system.tol2bus.snoop_filter.hit_single_snoops          268                       # Number of snoops hitting in the snoop filter with a single holder of the requested data.
system.tol2bus.snoop_filter.tot_requests       865413                       # Total number of requests made to the snoop filter.
system.tol2bus.snoop_filter.tot_snoops            268                       # Total number of snoops made to the snoop filter.
system.membus.pwrStateResidencyTicks::UNDEFINED  79926784000                       # Cumulative time (in ticks) in various power states
system.membus.trans_dist::ReadResp              29599                       # Transaction distribution
system.membus.trans_dist::WritebackDirty        49601                       # Transaction distribution
system.membus.trans_dist::CleanEvict            26258                       # Transaction distribution
system.membus.trans_dist::ReadExReq             79197                       # Transaction distribution
system.membus.trans_dist::ReadExResp            79197                       # Transaction distribution
system.membus.trans_dist::ReadSharedReq         29599                       # Transaction distribution
system.membus.pkt_count_system.l2.mem_side::system.mem_ctrls.port       293451                       # Packet count per connected master and slave (bytes)
system.membus.pkt_count::total                 293451                       # Packet count per connected master and slave (bytes)
system.membus.pkt_size_system.l2.mem_side::system.mem_ctrls.port     20274816                       # Cumulative packet size per connected master and slave (bytes)
system.membus.pkt_size::total                20274816                       # Cumulative packet size per connected master and slave (bytes)
system.membus.snoops                                0                       # Total snoops (count)
system.membus.snoopTraffic                          0                       # Total snoop traffic (bytes)
system.membus.snoop_fanout::samples            108796                       # Request fanout histogram
system.membus.snoop_fanout::mean                    0                       # Request fanout histogram
system.membus.snoop_fanout::stdev                   0                       # Request fanout histogram
system.membus.snoop_fanout::underflows              0      0.00%      0.00% # Request fanout histogram
system.membus.snoop_fanout::0                  108796    100.00%    100.00% # Request fanout histogram
system.membus.snoop_fanout::1                       0      0.00%    100.00% # Request fanout histogram
system.membus.snoop_fanout::overflows               0      0.00%    100.00% # Request fanout histogram
system.membus.snoop_fanout::min_value               0                       # Request fanout histogram
system.membus.snoop_fanout::max_value               0                       # Request fanout histogram
system.membus.snoop_fanout::total              108796                       # Request fanout histogram
system.membus.respLayer1.occupancy         1015204500                       # Layer occupancy (ticks)
system.membus.respLayer1.utilization              1.3                       # Layer utilization (%)
system.membus.reqLayer0.occupancy           606429500                       # Layer occupancy (ticks)
system.membus.reqLayer0.utilization               0.8                       # Layer utilization (%)
system.tol2bus.pwrStateResidencyTicks::UNDEFINED  79926784000                       # Cumulative time (in ticks) in various power states
system.tol2bus.trans_dist::ReadResp            222591                       # Transaction distribution
system.tol2bus.trans_dist::WritebackDirty       449579                       # Transaction distribution
system.tol2bus.trans_dist::WritebackClean          302                       # Transaction distribution
system.tol2bus.trans_dist::CleanEvict           58321                       # Transaction distribution
system.tol2bus.trans_dist::ReadExReq           210747                       # Transaction distribution
system.tol2bus.trans_dist::ReadExResp          210746                       # Transaction distribution
system.tol2bus.trans_dist::ReadCleanReq           540                       # Transaction distribution
system.tol2bus.trans_dist::ReadSharedReq       222051                       # Transaction distribution
system.tol2bus.pkt_count_system.cpu.icache.mem_side::system.l2.cpu_side         1382                       # Packet count per connected master and slave (bytes)
system.tol2bus.pkt_count_system.cpu.dcache.mem_side::system.l2.cpu_side      1297368                       # Packet count per connected master and slave (bytes)
system.tol2bus.pkt_count::total               1298750                       # Packet count per connected master and slave (bytes)
system.tol2bus.pkt_size_system.cpu.icache.mem_side::system.l2.cpu_side       107776                       # Cumulative packet size per connected master and slave (bytes)
system.tol2bus.pkt_size_system.cpu.dcache.mem_side::system.l2.cpu_side    106595200                       # Cumulative packet size per connected master and slave (bytes)
system.tol2bus.pkt_size::total              106702976                       # Cumulative packet size per connected master and slave (bytes)
system.tol2bus.snoops                           76127                       # Total snoops (count)
system.tol2bus.snoopTraffic                   6348928                       # Total snoop traffic (bytes)
system.tol2bus.snoop_fanout::samples           509465                       # Request fanout histogram
system.tol2bus.snoop_fanout::mean            0.000691                       # Request fanout histogram
system.tol2bus.snoop_fanout::stdev           0.026276                       # Request fanout histogram
system.tol2bus.snoop_fanout::underflows             0      0.00%      0.00% # Request fanout histogram
system.tol2bus.snoop_fanout::0                 509113     99.93%     99.93% # Request fanout histogram
system.tol2bus.snoop_fanout::1                    352      0.07%    100.00% # Request fanout histogram
system.tol2bus.snoop_fanout::2                      0      0.00%    100.00% # Request fanout histogram
system.tol2bus.snoop_fanout::overflows              0      0.00%    100.00% # Request fanout histogram
system.tol2bus.snoop_fanout::min_value              0                       # Request fanout histogram
system.tol2bus.snoop_fanout::max_value              1                       # Request fanout histogram
system.tol2bus.snoop_fanout::total             509465                       # Request fanout histogram
system.tol2bus.reqLayer0.occupancy         1233266500                       # Layer occupancy (ticks)
system.tol2bus.reqLayer0.utilization              1.5                       # Layer utilization (%)
system.tol2bus.respLayer1.occupancy        1081994995                       # Layer occupancy (ticks)
system.tol2bus.respLayer1.utilization             1.4                       # Layer utilization (%)
system.tol2bus.respLayer0.occupancy           1350000                       # Layer occupancy (ticks)
system.tol2bus.respLayer0.utilization             0.0                       # Layer utilization (%)
system.voltage_domain.voltage                       1                       # Voltage in Volts
system.clk_domain.clock                          1000                       # Clock period in ticks
system.l2.pwrStateResidencyTicks::UNDEFINED  79926784000                       # Cumulative time (in ticks) in various power states
system.l2.demand_hits::.cpu.inst                  125                       # number of demand (read+write) hits
system.l2.demand_hits::.cpu.data               324412                       # number of demand (read+write) hits
system.l2.demand_hits::total                   324537                       # number of demand (read+write) hits
system.l2.overall_hits::.cpu.inst                 125                       # number of overall hits
system.l2.overall_hits::.cpu.data              324412                       # number of overall hits
system.l2.overall_hits::total                  324537                       # number of overall hits
system.l2.demand_misses::.cpu.inst                415                       # number of demand (read+write) misses
system.l2.demand_misses::.cpu.data             108386                       # number of demand (read+write) misses
system.l2.demand_misses::total                 108801                       # number of demand (read+write) misses
system.l2.overall_misses::.cpu.inst               415                       # number of overall misses
system.l2.overall_misses::.cpu.data            108386                       # number of overall misses
system.l2.overall_misses::total                108801                       # number of overall misses
system.l2.demand_miss_latency::.cpu.inst     35502000                       # number of demand (read+write) miss cycles
system.l2.demand_miss_latency::.cpu.data   9742135500                       # number of demand (read+write) miss cycles
system.l2.demand_miss_latency::total       9777637500                       # number of demand (read+write) miss cycles
system.l2.overall_miss_latency::.cpu.inst     35502000                       # number of overall miss cycles
system.l2.overall_miss_latency::.cpu.data   9742135500                       # number of overall miss cycles
system.l2.overall_miss_latency::total      9777637500                       # number of overall miss cycles
system.l2.demand_accesses::.cpu.inst              540                       # number of demand (read+write) accesses
system.l2.demand_accesses::.cpu.data           432798                       # number of demand (read+write) accesses
system.l2.demand_accesses::total               433338                       # number of demand (read+write) accesses
system.l2.overall_accesses::.cpu.inst             540                       # number of overall (read+write) accesses
system.l2.overall_accesses::.cpu.data          432798                       # number of overall (read+write) accesses
system.l2.overall_accesses::total              433338                       # number of overall (read+write) accesses
system.l2.demand_miss_rate::.cpu.inst        0.768519                       # miss rate for demand accesses
system.l2.demand_miss_rate::.cpu.data        0.250431                       # miss rate for demand accesses
system.l2.demand_miss_rate::total            0.251077                       # miss rate for demand accesses
system.l2.overall_miss_rate::.cpu.inst       0.768519                       # miss rate for overall accesses
system.l2.overall_miss_rate::.cpu.data       0.250431                       # miss rate for overall accesses
system.l2.overall_miss_rate::total           0.251077                       # miss rate for overall accesses
system.l2.demand_avg_miss_latency::.cpu.inst 85546.987952                       # average overall miss latency
system.l2.demand_avg_miss_latency::.cpu.data 89883.707305                       # average overall miss latency
system.l2.demand_avg_miss_latency::total 89867.165743                       # average overall miss latency
system.l2.overall_avg_miss_latency::.cpu.inst 85546.987952                       # average overall miss latency
system.l2.overall_avg_miss_latency::.cpu.data 89883.707305                       # average overall miss latency
system.l2.overall_avg_miss_latency::total 89867.165743                       # average overall miss latency
system.l2.blocked_cycles::no_mshrs                  0                       # number of cycles access was blocked
system.l2.blocked_cycles::no_targets                0                       # number of cycles access was blocked
system.l2.blocked::no_mshrs                         0                       # number of cycles access was blocked
system.l2.blocked::no_targets                       0                       # number of cycles access was blocked
system.l2.avg_blocked_cycles::no_mshrs            nan                       # average number of cycles each access was blocked
system.l2.avg_blocked_cycles::no_targets          nan                       # average number of cycles each access was blocked
system.l2.writebacks::.writebacks               49601                       # number of writebacks
system.l2.writebacks::total                     49601                       # number of writebacks
system.l2.demand_mshr_hits::.cpu.data               5                       # number of demand (read+write) MSHR hits
system.l2.demand_mshr_hits::total                   5                       # number of demand (read+write) MSHR hits
system.l2.overall_mshr_hits::.cpu.data              5                       # number of overall MSHR hits
system.l2.overall_mshr_hits::total                  5                       # number of overall MSHR hits
system.l2.demand_mshr_misses::.cpu.inst           415                       # number of demand (read+write) MSHR misses
system.l2.demand_mshr_misses::.cpu.data        108381                       # number of demand (read+write) MSHR misses
system.l2.demand_mshr_misses::total            108796                       # number of demand (read+write) MSHR misses
system.l2.overall_mshr_misses::.cpu.inst          415                       # number of overall MSHR misses
system.l2.overall_mshr_misses::.cpu.data       108381                       # number of overall MSHR misses
system.l2.overall_mshr_misses::total           108796                       # number of overall MSHR misses
system.l2.demand_mshr_miss_latency::.cpu.inst     31352000                       # number of demand (read+write) MSHR miss cycles
system.l2.demand_mshr_miss_latency::.cpu.data   8657962000                       # number of demand (read+write) MSHR miss cycles
system.l2.demand_mshr_miss_latency::total   8689314000                       # number of demand (read+write) MSHR miss cycles
system.l2.overall_mshr_miss_latency::.cpu.inst     31352000                       # number of overall MSHR miss cycles
system.l2.overall_mshr_miss_latency::.cpu.data   8657962000                       # number of overall MSHR miss cycles
system.l2.overall_mshr_miss_latency::total   8689314000                       # number of overall MSHR miss cycles
system.l2.demand_mshr_miss_rate::.cpu.inst     0.768519                       # mshr miss rate for demand accesses
system.l2.demand_mshr_miss_rate::.cpu.data     0.250419                       # mshr miss rate for demand accesses
system.l2.demand_mshr_miss_rate::total       0.251065                       # mshr miss rate for demand accesses
system.l2.overall_mshr_miss_rate::.cpu.inst     0.768519                       # mshr miss rate for overall accesses
system.l2.overall_mshr_miss_rate::.cpu.data     0.250419                       # mshr miss rate for overall accesses
system.l2.overall_mshr_miss_rate::total      0.251065                       # mshr miss rate for overall accesses
system.l2.demand_avg_mshr_miss_latency::.cpu.inst 75546.987952                       # average overall mshr miss latency
system.l2.demand_avg_mshr_miss_latency::.cpu.data 79884.500051                       # average overall mshr miss latency
system.l2.demand_avg_mshr_miss_latency::total 79867.954704                       # average overall mshr miss latency
system.l2.overall_avg_mshr_miss_latency::.cpu.inst 75546.987952                       # average overall mshr miss latency
system.l2.overall_avg_mshr_miss_latency::.cpu.data 79884.500051                       # average overall mshr miss latency
system.l2.overall_avg_mshr_miss_latency::total 79867.954704                       # average overall mshr miss latency
system.l2.replacements                          76127                       # number of replacements
system.l2.WritebackDirty_hits::.writebacks       399978                       # number of WritebackDirty hits
system.l2.WritebackDirty_hits::total           399978                       # number of WritebackDirty hits
system.l2.WritebackDirty_accesses::.writebacks       399978                       # number of WritebackDirty accesses(hits+misses)
system.l2.WritebackDirty_accesses::total       399978                       # number of WritebackDirty accesses(hits+misses)
system.l2.WritebackClean_hits::.writebacks          289                       # number of WritebackClean hits
system.l2.WritebackClean_hits::total              289                       # number of WritebackClean hits
system.l2.WritebackClean_accesses::.writebacks          289                       # number of WritebackClean accesses(hits+misses)
system.l2.WritebackClean_accesses::total          289                       # number of WritebackClean accesses(hits+misses)
system.l2.ReadExReq_hits::.cpu.data            131550                       # number of ReadExReq hits
system.l2.ReadExReq_hits::total                131550                       # number of ReadExReq hits
system.l2.ReadExReq_misses::.cpu.data           79197                       # number of ReadExReq misses
system.l2.ReadExReq_misses::total               79197                       # number of ReadExReq misses
system.l2.ReadExReq_miss_latency::.cpu.data   7264954000                       # number of ReadExReq miss cycles
system.l2.ReadExReq_miss_latency::total    7264954000                       # number of ReadExReq miss cycles
system.l2.ReadExReq_accesses::.cpu.data        210747                       # number of ReadExReq accesses(hits+misses)
system.l2.ReadExReq_accesses::total            210747                       # number of ReadExReq accesses(hits+misses)
system.l2.ReadExReq_miss_rate::.cpu.data     0.375792                       # miss rate for ReadExReq accesses
system.l2.ReadExReq_miss_rate::total         0.375792                       # miss rate for ReadExReq accesses
system.l2.ReadExReq_avg_miss_latency::.cpu.data 91732.691895                       # average ReadExReq miss latency
system.l2.ReadExReq_avg_miss_latency::total 91732.691895                       # average ReadExReq miss latency
system.l2.ReadExReq_mshr_misses::.cpu.data        79197                       # number of ReadExReq MSHR misses
system.l2.ReadExReq_mshr_misses::total          79197                       # number of ReadExReq MSHR misses
system.l2.ReadExReq_mshr_miss_latency::.cpu.data   6472984000                       # number of ReadExReq MSHR miss cycles
system.l2.ReadExReq_mshr_miss_latency::total   6472984000                       # number of ReadExReq MSHR miss cycles
system.l2.ReadExReq_mshr_miss_rate::.cpu.data     0.375792                       # mshr miss rate for ReadExReq accesses
system.l2.ReadExReq_mshr_miss_rate::total     0.375792                       # mshr miss rate for ReadExReq accesses
system.l2.ReadExReq_avg_mshr_miss_latency::.cpu.data 81732.691895                       # average ReadExReq mshr miss latency
system.l2.ReadExReq_avg_mshr_miss_latency::total 81732.691895                       # average ReadExReq mshr miss latency
system.l2.ReadCleanReq_hits::.cpu.inst            125                       # number of ReadCleanReq hits
system.l2.ReadCleanReq_hits::total                125                       # number of ReadCleanReq hits
system.l2.ReadCleanReq_misses::.cpu.inst          415                       # number of ReadCleanReq misses
system.l2.ReadCleanReq_misses::total              415                       # number of ReadCleanReq misses
system.l2.ReadCleanReq_miss_latency::.cpu.inst     35502000                       # number of ReadCleanReq miss cycles
system.l2.ReadCleanReq_miss_latency::total     35502000                       # number of ReadCleanReq miss cycles
system.l2.ReadCleanReq_accesses::.cpu.inst          540                       # number of ReadCleanReq accesses(hits+misses)
system.l2.ReadCleanReq_accesses::total            540                       # number of ReadCleanReq accesses(hits+misses)
system.l2.ReadCleanReq_miss_rate::.cpu.inst     0.768519                       # miss rate for ReadCleanReq accesses
system.l2.ReadCleanReq_miss_rate::total      0.768519                       # miss rate for ReadCleanReq accesses
system.l2.ReadCleanReq_avg_miss_latency::.cpu.inst 85546.987952                       # average ReadCleanReq miss latency
system.l2.ReadCleanReq_avg_miss_latency::total 85546.987952                       # average ReadCleanReq miss latency
system.l2.ReadCleanReq_mshr_misses::.cpu.inst          415                       # number of ReadCleanReq MSHR misses
system.l2.ReadCleanReq_mshr_misses::total          415                       # number of ReadCleanReq MSHR misses
system.l2.ReadCleanReq_mshr_miss_latency::.cpu.inst     31352000                       # number of ReadCleanReq MSHR miss cycles
system.l2.ReadCleanReq_mshr_miss_latency::total     31352000                       # number of ReadCleanReq MSHR miss cycles
system.l2.ReadCleanReq_mshr_miss_rate::.cpu.inst     0.768519                       # mshr miss rate for ReadCleanReq accesses
system.l2.ReadCleanReq_mshr_miss_rate::total     0.768519                       # mshr miss rate for ReadCleanReq accesses
system.l2.ReadCleanReq_avg_mshr_miss_latency::.cpu.inst 75546.987952                       # average ReadCleanReq mshr miss latency
system.l2.ReadCleanReq_avg_mshr_miss_latency::total 75546.987952                       # average ReadCleanReq mshr miss latency
system.l2.ReadSharedReq_hits::.cpu.data        192862                       # number of ReadSharedReq hits
system.l2.ReadSharedReq_hits::total            192862                       # number of ReadSharedReq hits
system.l2.ReadSharedReq_misses::.cpu.data        29189                       # number of ReadSharedReq misses
system.l2.ReadSharedReq_misses::total           29189                       # number of ReadSharedReq misses
system.l2.ReadSharedReq_miss_latency::.cpu.data   2477181500                       # number of ReadSharedReq miss cycles
system.l2.ReadSharedReq_miss_latency::total   2477181500                       # number of ReadSharedReq miss cycles
system.l2.ReadSharedReq_accesses::.cpu.data       222051                       # number of ReadSharedReq accesses(hits+misses)
system.l2.ReadSharedReq_accesses::total        222051                       # number of ReadSharedReq accesses(hits+misses)
system.l2.ReadSharedReq_miss_rate::.cpu.data     0.131452                       # miss rate for ReadSharedReq accesses
system.l2.ReadSharedReq_miss_rate::total     0.131452                       # miss rate for ReadSharedReq accesses
system.l2.ReadSharedReq_avg_miss_latency::.cpu.data 84866.953304                       # average ReadSharedReq miss latency
system.l2.ReadSharedReq_avg_miss_latency::total 84866.953304                       # average ReadSharedReq miss latency
system.l2.ReadSharedReq_mshr_hits::.cpu.data            5                       # number of ReadSharedReq MSHR hits
system.l2.ReadSharedReq_mshr_hits::total            5                       # number of ReadSharedReq MSHR hits
system.l2.ReadSharedReq_mshr_misses::.cpu.data        29184                       # number of ReadSharedReq MSHR misses
system.l2.ReadSharedReq_mshr_misses::total        29184                       # number of ReadSharedReq MSHR misses
system.l2.ReadSharedReq_mshr_miss_latency::.cpu.data   2184978000                       # number of ReadSharedReq MSHR miss cycles
system.l2.ReadSharedReq_mshr_miss_latency::total   2184978000                       # number of ReadSharedReq MSHR miss cycles
system.l2.ReadSharedReq_mshr_miss_rate::.cpu.data     0.131429                       # mshr miss rate for ReadSharedReq accesses
system.l2.ReadSharedReq_mshr_miss_rate::total     0.131429                       # mshr miss rate for ReadSharedReq accesses
system.l2.ReadSharedReq_avg_mshr_miss_latency::.cpu.data 74869.037829                       # average ReadSharedReq mshr miss latency
system.l2.ReadSharedReq_avg_mshr_miss_latency::total 74869.037829                       # average ReadSharedReq mshr miss latency
system.l2.tags.pwrStateResidencyTicks::UNDEFINED  79926784000                       # Cumulative time (in ticks) in various power states
system.l2.tags.tagsinuse                 31566.081318                       # Cycle average of tags in use
system.l2.tags.total_refs                      865326                       # Total number of references to valid blocks.
system.l2.tags.sampled_refs                    108895                       # Sample count of references to valid blocks.
system.l2.tags.avg_refs                      7.946425                       # Average number of references to valid blocks.
system.l2.tags.warmup_cycle                     82000                       # Cycle when the warmup percentage was hit.
system.l2.tags.occ_blocks::.writebacks      54.858607                       # Average occupied blocks per requestor
system.l2.tags.occ_blocks::.cpu.inst        77.842839                       # Average occupied blocks per requestor
system.l2.tags.occ_blocks::.cpu.data     31433.379871                       # Average occupied blocks per requestor
system.l2.tags.occ_percent::.writebacks      0.001674                       # Average percentage of cache occupancy
system.l2.tags.occ_percent::.cpu.inst        0.002376                       # Average percentage of cache occupancy
system.l2.tags.occ_percent::.cpu.data        0.959271                       # Average percentage of cache occupancy
system.l2.tags.occ_percent::total            0.963320                       # Average percentage of cache occupancy
system.l2.tags.occ_task_id_blocks::1024         32768                       # Occupied blocks per task id
system.l2.tags.age_task_id_blocks_1024::2            2                       # Occupied blocks per task id
system.l2.tags.age_task_id_blocks_1024::3         2578                       # Occupied blocks per task id
system.l2.tags.age_task_id_blocks_1024::4        30188                       # Occupied blocks per task id
system.l2.tags.occ_task_id_percent::1024            1                       # Percentage of cache occupancy per task id
system.l2.tags.tag_accesses                  13954191                       # Number of tag accesses
system.l2.tags.data_accesses                 13954191                       # Number of data accesses
system.cpu_voltage_domain.voltage                   1                       # Voltage in Volts
system.mem_ctrls.pwrStateResidencyTicks::UNDEFINED  79926784000                       # Cumulative time (in ticks) in various power states
system.mem_ctrls.bytes_read::.cpu.inst          53120                       # Number of bytes read from this memory
system.mem_ctrls.bytes_read::.cpu.data       13872768                       # Number of bytes read from this memory
system.mem_ctrls.bytes_read::total           13925888                       # Number of bytes read from this memory
system.mem_ctrls.bytes_inst_read::.cpu.inst        53120                       # Number of instructions bytes read from this memory
system.mem_ctrls.bytes_inst_read::total         53120                       # Number of instructions bytes read from this memory
system.mem_ctrls.bytes_written::.writebacks      6348928                       # Number of bytes written to this memory
system.mem_ctrls.bytes_written::total         6348928                       # Number of bytes written to this memory
system.mem_ctrls.num_reads::.cpu.inst             415                       # Number of read requests responded to by this memory
system.mem_ctrls.num_reads::.cpu.data          108381                       # Number of read requests responded to by this memory
system.mem_ctrls.num_reads::total              108796                       # Number of read requests responded to by this memory
system.mem_ctrls.num_writes::.writebacks        49601                       # Number of write requests responded to by this memory
system.mem_ctrls.num_writes::total              49601                       # Number of write requests responded to by this memory
system.mem_ctrls.bw_read::.cpu.inst            664608                       # Total read bandwidth from this memory (bytes/s)
system.mem_ctrls.bw_read::.cpu.data         173568450                       # Total read bandwidth from this memory (bytes/s)
system.mem_ctrls.bw_read::total             174233058                       # Total read bandwidth from this memory (bytes/s)
system.mem_ctrls.bw_inst_read::.cpu.inst       664608                       # Instruction read bandwidth from this memory (bytes/s)
system.mem_ctrls.bw_inst_read::total           664608                       # Instruction read bandwidth from this memory (bytes/s)
system.mem_ctrls.bw_write::.writebacks       79434298                       # Write bandwidth from this memory (bytes/s)
system.mem_ctrls.bw_write::total             79434298                       # Write bandwidth from this memory (bytes/s)
system.mem_ctrls.bw_total::.writebacks       79434298                       # Total bandwidth to/from this memory (bytes/s)
system.mem_ctrls.bw_total::.cpu.inst           664608                       # Total bandwidth to/from this memory (bytes/s)
system.mem_ctrls.bw_total::.cpu.data        173568450                       # Total bandwidth to/from this memory (bytes/s)
system.mem_ctrls.bw_total::total            253667356                       # Total bandwidth to/from this memory (bytes/s)
system.mem_ctrls.avgPriority_.writebacks::samples     99202.00                       # Average QoS priority value for accepted requests
system.mem_ctrls.avgPriority_.cpu.inst::samples       830.00                       # Average QoS priority value for accepted requests
system.mem_ctrls.avgPriority_.cpu.data::samples    216758.00                       # Average QoS priority value for accepted requests
system.mem_ctrls.priorityMinLatency      0.000000018750                       # per QoS priority minimum request to response latency (s)
system.mem_ctrls.priorityMaxLatency      0.002742427750                       # per QoS priority maximum request to response latency (s)
system.mem_ctrls.numReadWriteTurnArounds         6044                       # Number of turnarounds from READ to WRITE
system.mem_ctrls.numWriteReadTurnArounds         6044                       # Number of turnarounds from WRITE to READ
system.mem_ctrls.numStayReadState              385590                       # Number of times bus staying in READ state
system.mem_ctrls.numStayWriteState              93256                       # Number of times bus staying in WRITE state
system.mem_ctrls.readReqs                      108796                       # Number of read requests accepted
system.mem_ctrls.writeReqs                      49601                       # Number of write requests accepted
system.mem_ctrls.readBursts                    217592                       # Number of DRAM read bursts, including those serviced by the write queue
system.mem_ctrls.writeBursts                    99202                       # Number of DRAM write bursts, including those merged in the write queue
system.mem_ctrls.servicedByWrQ                      4                       # Number of DRAM read bursts serviced by the write queue
system.mem_ctrls.mergedWrBursts                     0                       # Number of DRAM write bursts merged with an existing one
system.mem_ctrls.neitherReadNorWriteReqs            0                       # Number of requests that are neither read nor write
system.mem_ctrls.perBankRdBursts::0             13812                       # Per bank write bursts
system.mem_ctrls.perBankRdBursts::1             13792                       # Per bank write bursts
system.mem_ctrls.perBankRdBursts::2             13750                       # Per bank write bursts
system.mem_ctrls.perBankRdBursts::3             13576                       # Per bank write bursts
system.mem_ctrls.perBankRdBursts::4             13534                       # Per bank write bursts
system.mem_ctrls.perBankRdBursts::5             13482                       # Per bank write bursts
system.mem_ctrls.perBankRdBursts::6             13458                       # Per bank write bursts
system.mem_ctrls.perBankRdBursts::7             13600                       # Per bank write bursts
system.mem_ctrls.perBankRdBursts::8             13608                       # Per bank write bursts
system.mem_ctrls.perBankRdBursts::9             13592                       # Per bank write bursts
system.mem_ctrls.perBankRdBursts::10            13660                       # Per bank write bursts
system.mem_ctrls.perBankRdBursts::11            13634                       # Per bank write bursts
system.mem_ctrls.perBankRdBursts::12            13590                       # Per bank write bursts
system.mem_ctrls.perBankRdBursts::13            13468                       # Per bank write bursts
system.mem_ctrls.perBankRdBursts::14            13470                       # Per bank write bursts
system.mem_ctrls.perBankRdBursts::15            13562                       # Per bank write bursts
system.mem_ctrls.perBankWrBursts::0              6272                       # Per bank write bursts
system.mem_ctrls.perBankWrBursts::1              6274                       # Per bank write bursts
system.mem_ctrls.perBankWrBursts::2              6318                       # Per bank write bursts
system.mem_ctrls.perBankWrBursts::3              6298                       # Per bank write bursts
system.mem_ctrls.perBankWrBursts::4              6204                       # Per bank write bursts
system.mem_ctrls.perBankWrBursts::5              6166                       # Per bank write bursts
system.mem_ctrls.perBankWrBursts::6              6174                       # Per bank write bursts
system.mem_ctrls.perBankWrBursts::7              6270                       # Per bank write bursts
system.mem_ctrls.perBankWrBursts::8              6184                       # Per bank write bursts
system.mem_ctrls.perBankWrBursts::9              6142                       # Per bank write bursts
system.mem_ctrls.perBankWrBursts::10             6141                       # Per bank write bursts
system.mem_ctrls.perBankWrBursts::11             6144                       # Per bank write bursts
system.mem_ctrls.perBankWrBursts::12             6118                       # Per bank write bursts
system.mem_ctrls.perBankWrBursts::13             6144                       # Per bank write bursts
system.mem_ctrls.perBankWrBursts::14             6144                       # Per bank write bursts
system.mem_ctrls.perBankWrBursts::15             6188                       # Per bank write bursts
system.mem_ctrls.avgRdQLen                       2.06                       # Average read queue length when enqueuing
system.mem_ctrls.avgWrQLen                      25.53                       # Average write queue length when enqueuing
system.mem_ctrls.totQLat                   3794466250                       # Total ticks spent queuing
system.mem_ctrls.totBusLat                 1087940000                       # Total ticks spent in databus transfers
system.mem_ctrls.totMemAccLat              7874241250                       # Total ticks spent from burst creation until serviced by the DRAM
system.mem_ctrls.avgQLat                     17438.77                       # Average queueing delay per DRAM burst
system.mem_ctrls.avgBusLat                    5000.00                       # Average bus latency per DRAM burst
system.mem_ctrls.avgMemAccLat                36188.77                       # Average memory access latency per DRAM burst
system.mem_ctrls.numRdRetry                         0                       # Number of times read queue was full causing retry
system.mem_ctrls.numWrRetry                         0                       # Number of times write queue was full causing retry
system.mem_ctrls.readRowHits                   184537                       # Number of row buffer hits during reads
system.mem_ctrls.writeRowHits                   86036                       # Number of row buffer hits during writes
system.mem_ctrls.readRowHitRate                 84.81                       # Row buffer hit rate for reads
system.mem_ctrls.writeRowHitRate                86.73                       # Row buffer hit rate for writes
system.mem_ctrls.readPktSize::0                     0                       # Read request sizes (log2)
system.mem_ctrls.readPktSize::1                     0                       # Read request sizes (log2)
system.mem_ctrls.readPktSize::2                     0                       # Read request sizes (log2)
system.mem_ctrls.readPktSize::3                     0                       # Read request sizes (log2)
system.mem_ctrls.readPktSize::4                     0                       # Read request sizes (log2)
system.mem_ctrls.readPktSize::5                     0                       # Read request sizes (log2)
system.mem_ctrls.readPktSize::6                217592                       # Read request sizes (log2)
system.mem_ctrls.writePktSize::0                    0                       # Write request sizes (log2)
system.mem_ctrls.writePktSize::1                    0                       # Write request sizes (log2)
system.mem_ctrls.writePktSize::2                    0                       # Write request sizes (log2)
system.mem_ctrls.writePktSize::3                    0                       # Write request sizes (log2)
system.mem_ctrls.writePktSize::4                    0                       # Write request sizes (log2)
system.mem_ctrls.writePktSize::5                    0                       # Write request sizes (log2)
system.mem_ctrls.writePktSize::6                99202                       # Write request sizes (log2)
system.mem_ctrls.rdQLenPdf::0                   91147                       # What read queue length does an incoming req see
system.mem_ctrls.rdQLenPdf::1                   91399                       # What read queue length does an incoming req see
system.mem_ctrls.rdQLenPdf::2                   17641                       # What read queue length does an incoming req see
system.mem_ctrls.rdQLenPdf::3                   17390                       # What read queue length does an incoming req see
system.mem_ctrls.rdQLenPdf::4                       5                       # What read queue length does an incoming req see
system.mem_ctrls.rdQLenPdf::5                       4                       # What read queue length does an incoming req see
system.mem_ctrls.rdQLenPdf::6                       1                       # What read queue length does an incoming req see
system.mem_ctrls.rdQLenPdf::7                       1                       # What read queue length does an incoming req see
system.mem_ctrls.rdQLenPdf::8                       0                       # What read queue length does an incoming req see
system.mem_ctrls.rdQLenPdf::9                       0                       # What read queue length does an incoming req see
system.mem_ctrls.rdQLenPdf::10                      0                       # What read queue length does an incoming req see
system.mem_ctrls.rdQLenPdf::11                      0                       # What read queue length does an incoming req see
system.mem_ctrls.rdQLenPdf::12                      0                       # What read queue length does an incoming req see
system.mem_ctrls.rdQLenPdf::13                      0                       # What read queue length does an incoming req see
system.mem_ctrls.rdQLenPdf::14                      0                       # What read queue length does an incoming req see
system.mem_ctrls.rdQLenPdf::15                      0                       # What read queue length does an incoming req see
system.mem_ctrls.rdQLenPdf::16                      0                       # What read queue length does an incoming req see
system.mem_ctrls.rdQLenPdf::17                      0                       # What read queue length does an incoming req see
system.mem_ctrls.rdQLenPdf::18                      0                       # What read queue length does an incoming req see
system.mem_ctrls.rdQLenPdf::19                      0                       # What read queue length does an incoming req see
system.mem_ctrls.rdQLenPdf::20                      0                       # What read queue length does an incoming req see
system.mem_ctrls.rdQLenPdf::21                      0                       # What read queue length does an incoming req see
system.mem_ctrls.rdQLenPdf::22                      0                       # What read queue length does an incoming req see
system.mem_ctrls.rdQLenPdf::23                      0                       # What read queue length does an incoming req see
system.mem_ctrls.rdQLenPdf::24                      0                       # What read queue length does an incoming req see
system.mem_ctrls.rdQLenPdf::25                      0                       # What read queue length does an incoming req see
system.mem_ctrls.rdQLenPdf::26                      0                       # What read queue length does an incoming req see
system.mem_ctrls.rdQLenPdf::27                      0                       # What read queue length does an incoming req see
system.mem_ctrls.rdQLenPdf::28                      0                       # What read queue length does an incoming req see
system.mem_ctrls.rdQLenPdf::29                      0                       # What read queue length does an incoming req see
system.mem_ctrls.rdQLenPdf::30                      0                       # What read queue length does an incoming req see
system.mem_ctrls.rdQLenPdf::31                      0                       # What read queue length does an incoming req see
system.mem_ctrls.wrQLenPdf::0                       1                       # What write queue length does an incoming req see
system.mem_ctrls.wrQLenPdf::1                       1                       # What write queue length does an incoming req see
system.mem_ctrls.wrQLenPdf::2                       1                       # What write queue length does an incoming req see
system.mem_ctrls.wrQLenPdf::3                       1                       # What write queue length does an incoming req see
system.mem_ctrls.wrQLenPdf::4                       1                       # What write queue length does an incoming req see
system.mem_ctrls.wrQLenPdf::5                       1                       # What write queue length does an incoming req see
system.mem_ctrls.wrQLenPdf::6                       1                       # What write queue length does an incoming req see
system.mem_ctrls.wrQLenPdf::7                       1                       # What write queue length does an incoming req see
system.mem_ctrls.wrQLenPdf::8                       1                       # What write queue length does an incoming req see
system.mem_ctrls.wrQLenPdf::9                       1                       # What write queue length does an incoming req see
system.mem_ctrls.wrQLenPdf::10                      1                       # What write queue length does an incoming req see
system.mem_ctrls.wrQLenPdf::11                      1                       # What write queue length does an incoming req see
system.mem_ctrls.wrQLenPdf::12                      1                       # What write queue length does an incoming req see
system.mem_ctrls.wrQLenPdf::13                      1                       # What write queue length does an incoming req see
system.mem_ctrls.wrQLenPdf::14                      1                       # What write queue length does an incoming req see
system.mem_ctrls.wrQLenPdf::15                   1174                       # What write queue length does an incoming req see
system.mem_ctrls.wrQLenPdf::16                   1183                       # What write queue length does an incoming req see
system.mem_ctrls.wrQLenPdf::17                   3136                       # What write queue length does an incoming req see
system.mem_ctrls.wrQLenPdf::18                   3768                       # What write queue length does an incoming req see
system.mem_ctrls.wrQLenPdf::19                   4373                       # What write queue length does an incoming req see
system.mem_ctrls.wrQLenPdf::20                   6077                       # What write queue length does an incoming req see
system.mem_ctrls.wrQLenPdf::21                   6087                       # What write queue length does an incoming req see
system.mem_ctrls.wrQLenPdf::22                   6085                       # What write queue length does an incoming req see
system.mem_ctrls.wrQLenPdf::23                   6075                       # What write queue length does an incoming req see
system.mem_ctrls.wrQLenPdf::24                   6076                       # What write queue length does an incoming req see
system.mem_ctrls.wrQLenPdf::25                   6867                       # What write queue length does an incoming req see
system.mem_ctrls.wrQLenPdf::26                   7919                       # What write queue length does an incoming req see
system.mem_ctrls.wrQLenPdf::27                   7164                       # What write queue length does an incoming req see
system.mem_ctrls.wrQLenPdf::28                   6140                       # What write queue length does an incoming req see
system.mem_ctrls.wrQLenPdf::29                   6335                       # What write queue length does an incoming req see
system.mem_ctrls.wrQLenPdf::30                   6288                       # What write queue length does an incoming req see
system.mem_ctrls.wrQLenPdf::31                   6050                       # What write queue length does an incoming req see
system.mem_ctrls.wrQLenPdf::32                   6046                       # What write queue length does an incoming req see
system.mem_ctrls.wrQLenPdf::33                   2326                       # What write queue length does an incoming req see
system.mem_ctrls.wrQLenPdf::34                     11                       # What write queue length does an incoming req see
system.mem_ctrls.wrQLenPdf::35                      7                       # What write queue length does an incoming req see
system.mem_ctrls.wrQLenPdf::36                      0                       # What write queue length does an incoming req see
system.mem_ctrls.wrQLenPdf::37                      0                       # What write queue length does an incoming req see
system.mem_ctrls.wrQLenPdf::38                      0                       # What write queue length does an incoming req see
system.mem_ctrls.wrQLenPdf::39                      0                       # What write queue length does an incoming req see
system.mem_ctrls.wrQLenPdf::40                      0                       # What write queue length does an incoming req see
system.mem_ctrls.wrQLenPdf::41                      0                       # What write queue length does an incoming req see
system.mem_ctrls.wrQLenPdf::42                      0                       # What write queue length does an incoming req see
system.mem_ctrls.wrQLenPdf::43                      0                       # What write queue length does an incoming req see
system.mem_ctrls.wrQLenPdf::44                      0                       # What write queue length does an incoming req see
system.mem_ctrls.wrQLenPdf::45                      0                       # What write queue length does an incoming req see
system.mem_ctrls.wrQLenPdf::46                      0                       # What write queue length does an incoming req see
system.mem_ctrls.wrQLenPdf::47                      0                       # What write queue length does an incoming req see
system.mem_ctrls.wrQLenPdf::48                      0                       # What write queue length does an incoming req see
system.mem_ctrls.wrQLenPdf::49                      0                       # What write queue length does an incoming req see
system.mem_ctrls.wrQLenPdf::50                      0                       # What write queue length does an incoming req see
system.mem_ctrls.wrQLenPdf::51                      0                       # What write queue length does an incoming req see
system.mem_ctrls.wrQLenPdf::52                      0                       # What write queue length does an incoming req see
system.mem_ctrls.wrQLenPdf::53                      0                       # What write queue length does an incoming req see
system.mem_ctrls.wrQLenPdf::54                      0                       # What write queue length does an incoming req see
system.mem_ctrls.wrQLenPdf::55                      0                       # What write queue length does an incoming req see
system.mem_ctrls.wrQLenPdf::56                      0                       # What write queue length does an incoming req see
system.mem_ctrls.wrQLenPdf::57                      0                       # What write queue length does an incoming req see
system.mem_ctrls.wrQLenPdf::58                      0                       # What write queue length does an incoming req see
system.mem_ctrls.wrQLenPdf::59                      0                       # What write queue length does an incoming req see
system.mem_ctrls.wrQLenPdf::60                      0                       # What write queue length does an incoming req see
system.mem_ctrls.wrQLenPdf::61                      0                       # What write queue length does an incoming req see
system.mem_ctrls.wrQLenPdf::62                      0                       # What write queue length does an incoming req see
system.mem_ctrls.wrQLenPdf::63                      0                       # What write queue length does an incoming req see
system.mem_ctrls.bytesPerActivate::samples        46196                       # Bytes accessed per row activation
system.mem_ctrls.bytesPerActivate::mean    438.852195                       # Bytes accessed per row activation
system.mem_ctrls.bytesPerActivate::gmean   279.798368                       # Bytes accessed per row activation
system.mem_ctrls.bytesPerActivate::stdev   394.170296                       # Bytes accessed per row activation
system.mem_ctrls.bytesPerActivate::0-127         1160      2.51%      2.51% # Bytes accessed per row activation
system.mem_ctrls.bytesPerActivate::128-255        24305     52.61%     55.12% # Bytes accessed per row activation
system.mem_ctrls.bytesPerActivate::256-383         2414      5.23%     60.35% # Bytes accessed per row activation
system.mem_ctrls.bytesPerActivate::384-511         1238      2.68%     63.03% # Bytes accessed per row activation
system.mem_ctrls.bytesPerActivate::512-639         1063      2.30%     65.33% # Bytes accessed per row activation
system.mem_ctrls.bytesPerActivate::640-767         1661      3.60%     68.93% # Bytes accessed per row activation
system.mem_ctrls.bytesPerActivate::768-895         1171      2.53%     71.46% # Bytes accessed per row activation
system.mem_ctrls.bytesPerActivate::896-1023          999      2.16%     73.62% # Bytes accessed per row activation
system.mem_ctrls.bytesPerActivate::1024-1151        12185     26.38%    100.00% # Bytes accessed per row activation
system.mem_ctrls.bytesPerActivate::total        46196                       # Bytes accessed per row activation
system.mem_ctrls.rdPerTurnAround::samples         6044                       # Reads before turning the bus around for writes
system.mem_ctrls.rdPerTurnAround::mean      35.981138                       # Reads before turning the bus around for writes
system.mem_ctrls.rdPerTurnAround::gmean     25.607856                       # Reads before turning the bus around for writes
system.mem_ctrls.rdPerTurnAround::stdev    118.353665                       # Reads before turning the bus around for writes
system.mem_ctrls.rdPerTurnAround::0-511          6043     99.98%     99.98% # Reads before turning the bus around for writes
system.mem_ctrls.rdPerTurnAround::8704-9215            1      0.02%    100.00% # Reads before turning the bus around for writes
system.mem_ctrls.rdPerTurnAround::total          6044                       # Reads before turning the bus around for writes
system.mem_ctrls.wrPerTurnAround::samples         6044                       # Writes before turning the bus around for reads
system.mem_ctrls.wrPerTurnAround::mean      16.409828                       # Writes before turning the bus around for reads
system.mem_ctrls.wrPerTurnAround::gmean     16.389293                       # Writes before turning the bus around for reads
system.mem_ctrls.wrPerTurnAround::stdev      0.845098                       # Writes before turning the bus around for reads
system.mem_ctrls.wrPerTurnAround::16             4848     80.21%     80.21% # Writes before turning the bus around for reads
system.mem_ctrls.wrPerTurnAround::17                7      0.12%     80.33% # Writes before turning the bus around for reads
system.mem_ctrls.wrPerTurnAround::18             1143     18.91%     99.24% # Writes before turning the bus around for reads
system.mem_ctrls.wrPerTurnAround::19                8      0.13%     99.37% # Writes before turning the bus around for reads
[...]
system.cpu.icache.ReadReq_mshr_misses::.cpu.inst          540                       # number of ReadReq MSHR misses
system.cpu.icache.ReadReq_mshr_misses::total          540                       # number of ReadReq MSHR misses
system.cpu.icache.ReadReq_mshr_miss_latency::.cpu.inst     37720000                       # number of ReadReq MSHR miss cycles
system.cpu.icache.ReadReq_mshr_miss_latency::total     37720000                       # number of ReadReq MSHR miss cycles
system.cpu.icache.ReadReq_mshr_miss_rate::.cpu.inst     0.000067                       # mshr miss rate for ReadReq accesses
system.cpu.icache.ReadReq_mshr_miss_rate::total     0.000067                       # mshr miss rate for ReadReq accesses
system.cpu.icache.ReadReq_avg_mshr_miss_latency::.cpu.inst 69851.851852                       # average ReadReq mshr miss latency
system.cpu.icache.ReadReq_avg_mshr_miss_latency::total 69851.851852                       # average ReadReq mshr miss latency
system.cpu.icache.tags.pwrStateResidencyTicks::UNDEFINED  79926784000                       # Cumulative time (in ticks) in various power states
system.cpu.icache.tags.tagsinuse           203.852212                       # Cycle average of tags in use
system.cpu.icache.tags.total_refs             8050873                       # Total number of references to valid blocks.
system.cpu.icache.tags.sampled_refs               540                       # Sample count of references to valid blocks.
system.cpu.icache.tags.avg_refs          14909.024074                       # Average number of references to valid blocks.
system.cpu.icache.tags.warmup_cycle             92500                       # Cycle when the warmup percentage was hit.
system.cpu.icache.tags.occ_blocks::.cpu.inst   203.852212                       # Average occupied blocks per requestor
system.cpu.icache.tags.occ_percent::.cpu.inst     0.796298                       # Average percentage of cache occupancy
system.cpu.icache.tags.occ_percent::total     0.796298                       # Average percentage of cache occupancy
system.cpu.icache.tags.occ_task_id_blocks::1024          238                       # Occupied blocks per task id
system.cpu.icache.tags.age_task_id_blocks_1024::3           52                       # Occupied blocks per task id
system.cpu.icache.tags.age_task_id_blocks_1024::4          186                       # Occupied blocks per task id
system.cpu.icache.tags.occ_task_id_percent::1024     0.929688                       # Percentage of cache occupancy per task id
system.cpu.icache.tags.tag_accesses          16102286                       # Number of tag accesses
system.cpu.icache.tags.data_accesses         16102286                       # Number of data accesses
system.cpu.dtb.walker.pwrStateResidencyTicks::UNDEFINED  79926784000                       # Cumulative time (in ticks) in various power states
system.cpu.dtb.stage2_mmu.stage2_tlb.walker.pwrStateResidencyTicks::UNDEFINED  79926784000                       # Cumulative time (in ticks) in various power states
system.cpu.dcache.pwrStateResidencyTicks::UNDEFINED  79926784000                       # Cumulative time (in ticks) in various power states
system.cpu.dcache.demand_hits::.cpu.data     51590836                       # number of demand (read+write) hits
system.cpu.dcache.demand_hits::total         51590836                       # number of demand (read+write) hits
system.cpu.dcache.overall_hits::.cpu.data     51591436                       # number of overall hits
system.cpu.dcache.overall_hits::total        51591436                       # number of overall hits
system.cpu.dcache.demand_misses::.cpu.data       464174                       # number of demand (read+write) misses
system.cpu.dcache.demand_misses::total         464174                       # number of demand (read+write) misses
system.cpu.dcache.overall_misses::.cpu.data       471993                       # number of overall misses
system.cpu.dcache.overall_misses::total        471993                       # number of overall misses
system.cpu.dcache.demand_miss_latency::.cpu.data  16351189000                       # number of demand (read+write) miss cycles
system.cpu.dcache.demand_miss_latency::total  16351189000                       # number of demand (read+write) miss cycles
system.cpu.dcache.overall_miss_latency::.cpu.data  16351189000                       # number of overall miss cycles
system.cpu.dcache.overall_miss_latency::total  16351189000                       # number of overall miss cycles
system.cpu.dcache.demand_accesses::.cpu.data     52055010                       # number of demand (read+write) accesses
system.cpu.dcache.demand_accesses::total     52055010                       # number of demand (read+write) accesses
system.cpu.dcache.overall_accesses::.cpu.data     52063429                       # number of overall (read+write) accesses
system.cpu.dcache.overall_accesses::total     52063429                       # number of overall (read+write) accesses
system.cpu.dcache.demand_miss_rate::.cpu.data     0.008917                       # miss rate for demand accesses
system.cpu.dcache.demand_miss_rate::total     0.008917                       # miss rate for demand accesses
system.cpu.dcache.overall_miss_rate::.cpu.data     0.009066                       # miss rate for overall accesses
system.cpu.dcache.overall_miss_rate::total     0.009066                       # miss rate for overall accesses
system.cpu.dcache.demand_avg_miss_latency::.cpu.data 35226.421557                       # average overall miss latency
system.cpu.dcache.demand_avg_miss_latency::total 35226.421557                       # average overall miss latency
system.cpu.dcache.overall_avg_miss_latency::.cpu.data 34642.863348                       # average overall miss latency
system.cpu.dcache.overall_avg_miss_latency::total 34642.863348                       # average overall miss latency
system.cpu.dcache.blocked_cycles::no_mshrs            0                       # number of cycles access was blocked
system.cpu.dcache.blocked_cycles::no_targets            0                       # number of cycles access was blocked
system.cpu.dcache.blocked::no_mshrs                 0                       # number of cycles access was blocked
system.cpu.dcache.blocked::no_targets               0                       # number of cycles access was blocked
system.cpu.dcache.avg_blocked_cycles::no_mshrs          nan                       # average number of cycles each access was blocked
system.cpu.dcache.avg_blocked_cycles::no_targets          nan                       # average number of cycles each access was blocked
system.cpu.dcache.writebacks::.writebacks       399978                       # number of writebacks
system.cpu.dcache.writebacks::total            399978                       # number of writebacks
system.cpu.dcache.demand_mshr_hits::.cpu.data        35331                       # number of demand (read+write) MSHR hits
system.cpu.dcache.demand_mshr_hits::total        35331                       # number of demand (read+write) MSHR hits
system.cpu.dcache.overall_mshr_hits::.cpu.data        35331                       # number of overall MSHR hits
system.cpu.dcache.overall_mshr_hits::total        35331                       # number of overall MSHR hits
system.cpu.dcache.demand_mshr_misses::.cpu.data       428843                       # number of demand (read+write) MSHR misses
system.cpu.dcache.demand_mshr_misses::total       428843                       # number of demand (read+write) MSHR misses
system.cpu.dcache.overall_mshr_misses::.cpu.data       432798                       # number of overall MSHR misses
system.cpu.dcache.overall_mshr_misses::total       432798                       # number of overall MSHR misses
system.cpu.dcache.demand_mshr_miss_latency::.cpu.data  13475793500                       # number of demand (read+write) MSHR miss cycles
system.cpu.dcache.demand_mshr_miss_latency::total  13475793500                       # number of demand (read+write) MSHR miss cycles
system.cpu.dcache.overall_mshr_miss_latency::.cpu.data  13811091000                       # number of overall MSHR miss cycles
system.cpu.dcache.overall_mshr_miss_latency::total  13811091000                       # number of overall MSHR miss cycles
system.cpu.dcache.demand_mshr_miss_rate::.cpu.data     0.008238                       # mshr miss rate for demand accesses
system.cpu.dcache.demand_mshr_miss_rate::total     0.008238                       # mshr miss rate for demand accesses
system.cpu.dcache.overall_mshr_miss_rate::.cpu.data     0.008313                       # mshr miss rate for overall accesses
system.cpu.dcache.overall_mshr_miss_rate::total     0.008313                       # mshr miss rate for overall accesses
system.cpu.dcache.demand_avg_mshr_miss_latency::.cpu.data 31423.606075                       # average overall mshr miss latency
system.cpu.dcache.demand_avg_mshr_miss_latency::total 31423.606075                       # average overall mshr miss latency
system.cpu.dcache.overall_avg_mshr_miss_latency::.cpu.data 31911.171031                       # average overall mshr miss latency
system.cpu.dcache.overall_avg_mshr_miss_latency::total 31911.171031                       # average overall mshr miss latency
system.cpu.dcache.replacements                 431773                       # number of replacements
system.cpu.dcache.ReadReq_hits::.cpu.data     40884164                       # number of ReadReq hits
system.cpu.dcache.ReadReq_hits::total        40884164                       # number of ReadReq hits
system.cpu.dcache.ReadReq_misses::.cpu.data       220754                       # number of ReadReq misses
system.cpu.dcache.ReadReq_misses::total        220754                       # number of ReadReq misses
system.cpu.dcache.ReadReq_miss_latency::.cpu.data   4884648500                       # number of ReadReq miss cycles
system.cpu.dcache.ReadReq_miss_latency::total   4884648500                       # number of ReadReq miss cycles
system.cpu.dcache.ReadReq_accesses::.cpu.data     41104918                       # number of ReadReq accesses(hits+misses)
system.cpu.dcache.ReadReq_accesses::total     41104918                       # number of ReadReq accesses(hits+misses)
system.cpu.dcache.ReadReq_miss_rate::.cpu.data     0.005371                       # miss rate for ReadReq accesses
system.cpu.dcache.ReadReq_miss_rate::total     0.005371                       # miss rate for ReadReq accesses
system.cpu.dcache.ReadReq_avg_miss_latency::.cpu.data 22127.112080                       # average ReadReq miss latency
system.cpu.dcache.ReadReq_avg_miss_latency::total 22127.112080                       # average ReadReq miss latency
system.cpu.dcache.ReadReq_mshr_hits::.cpu.data         2658                       # number of ReadReq MSHR hits
system.cpu.dcache.ReadReq_mshr_hits::total         2658                       # number of ReadReq MSHR hits
system.cpu.dcache.ReadReq_mshr_misses::.cpu.data       218096                       # number of ReadReq MSHR misses
system.cpu.dcache.ReadReq_mshr_misses::total       218096                       # number of ReadReq MSHR misses
system.cpu.dcache.ReadReq_mshr_miss_latency::.cpu.data   4512028500                       # number of ReadReq MSHR miss cycles
system.cpu.dcache.ReadReq_mshr_miss_latency::total   4512028500                       # number of ReadReq MSHR miss cycles
system.cpu.dcache.ReadReq_mshr_miss_rate::.cpu.data     0.005306                       # mshr miss rate for ReadReq accesses
system.cpu.dcache.ReadReq_mshr_miss_rate::total     0.005306                       # mshr miss rate for ReadReq accesses
system.cpu.dcache.ReadReq_avg_mshr_miss_latency::.cpu.data 20688.268010                       # average ReadReq mshr miss latency
system.cpu.dcache.ReadReq_avg_mshr_miss_latency::total 20688.268010                       # average ReadReq mshr miss latency
system.cpu.dcache.WriteReq_hits::.cpu.data     10706672                       # number of WriteReq hits
system.cpu.dcache.WriteReq_hits::total       10706672                       # number of WriteReq hits
system.cpu.dcache.WriteReq_misses::.cpu.data       243420                       # number of WriteReq misses
system.cpu.dcache.WriteReq_misses::total       243420                       # number of WriteReq misses
system.cpu.dcache.WriteReq_miss_latency::.cpu.data  11466540500                       # number of WriteReq miss cycles
system.cpu.dcache.WriteReq_miss_latency::total  11466540500                       # number of WriteReq miss cycles
system.cpu.dcache.WriteReq_accesses::.cpu.data     10950092                       # number of WriteReq accesses(hits+misses)
system.cpu.dcache.WriteReq_accesses::total     10950092                       # number of WriteReq accesses(hits+misses)
system.cpu.dcache.WriteReq_miss_rate::.cpu.data     0.022230                       # miss rate for WriteReq accesses
system.cpu.dcache.WriteReq_miss_rate::total     0.022230                       # miss rate for WriteReq accesses
system.cpu.dcache.WriteReq_avg_miss_latency::.cpu.data 47105.991702                       # average WriteReq miss latency
system.cpu.dcache.WriteReq_avg_miss_latency::total 47105.991702                       # average WriteReq miss latency
system.cpu.dcache.WriteReq_mshr_hits::.cpu.data        32673                       # number of WriteReq MSHR hits
system.cpu.dcache.WriteReq_mshr_hits::total        32673                       # number of WriteReq MSHR hits
system.cpu.dcache.WriteReq_mshr_misses::.cpu.data       210747                       # number of WriteReq MSHR misses
system.cpu.dcache.WriteReq_mshr_misses::total       210747                       # number of WriteReq MSHR misses
system.cpu.dcache.WriteReq_mshr_miss_latency::.cpu.data   8963765000                       # number of WriteReq MSHR miss cycles
system.cpu.dcache.WriteReq_mshr_miss_latency::total   8963765000                       # number of WriteReq MSHR miss cycles
system.cpu.dcache.WriteReq_mshr_miss_rate::.cpu.data     0.019246                       # mshr miss rate for WriteReq accesses
system.cpu.dcache.WriteReq_mshr_miss_rate::total     0.019246                       # mshr miss rate for WriteReq accesses
system.cpu.dcache.WriteReq_avg_mshr_miss_latency::.cpu.data 42533.298220                       # average WriteReq mshr miss latency
system.cpu.dcache.WriteReq_avg_mshr_miss_latency::total 42533.298220                       # average WriteReq mshr miss latency
system.cpu.dcache.SoftPFReq_hits::.cpu.data          600                       # number of SoftPFReq hits
system.cpu.dcache.SoftPFReq_hits::total           600                       # number of SoftPFReq hits
system.cpu.dcache.SoftPFReq_misses::.cpu.data         7819                       # number of SoftPFReq misses
system.cpu.dcache.SoftPFReq_misses::total         7819                       # number of SoftPFReq misses
system.cpu.dcache.SoftPFReq_accesses::.cpu.data         8419                       # number of SoftPFReq accesses(hits+misses)
system.cpu.dcache.SoftPFReq_accesses::total         8419                       # number of SoftPFReq accesses(hits+misses)
system.cpu.dcache.SoftPFReq_miss_rate::.cpu.data     0.928733                       # miss rate for SoftPFReq accesses
system.cpu.dcache.SoftPFReq_miss_rate::total     0.928733                       # miss rate for SoftPFReq accesses
system.cpu.dcache.SoftPFReq_mshr_misses::.cpu.data         3955                       # number of SoftPFReq MSHR misses
system.cpu.dcache.SoftPFReq_mshr_misses::total         3955                       # number of SoftPFReq MSHR misses
system.cpu.dcache.SoftPFReq_mshr_miss_latency::.cpu.data    335297500                       # number of SoftPFReq MSHR miss cycles
system.cpu.dcache.SoftPFReq_mshr_miss_latency::total    335297500                       # number of SoftPFReq MSHR miss cycles
system.cpu.dcache.SoftPFReq_mshr_miss_rate::.cpu.data     0.469771                       # mshr miss rate for SoftPFReq accesses
system.cpu.dcache.SoftPFReq_mshr_miss_rate::total     0.469771                       # mshr miss rate for SoftPFReq accesses
system.cpu.dcache.SoftPFReq_avg_mshr_miss_latency::.cpu.data 84778.128951                       # average SoftPFReq mshr miss latency
system.cpu.dcache.SoftPFReq_avg_mshr_miss_latency::total 84778.128951                       # average SoftPFReq mshr miss latency
system.cpu.dcache.LoadLockedReq_hits::.cpu.data           38                       # number of LoadLockedReq hits
system.cpu.dcache.LoadLockedReq_hits::total           38                       # number of LoadLockedReq hits
system.cpu.dcache.LoadLockedReq_accesses::.cpu.data           38                       # number of LoadLockedReq accesses(hits+misses)
system.cpu.dcache.LoadLockedReq_accesses::total           38                       # number of LoadLockedReq accesses(hits+misses)
system.cpu.dcache.StoreCondReq_hits::.cpu.data           38                       # number of StoreCondReq hits
system.cpu.dcache.StoreCondReq_hits::total           38                       # number of StoreCondReq hits
system.cpu.dcache.StoreCondReq_accesses::.cpu.data           38                       # number of StoreCondReq accesses(hits+misses)
system.cpu.dcache.StoreCondReq_accesses::total           38                       # number of StoreCondReq accesses(hits+misses)
system.cpu.dcache.tags.pwrStateResidencyTicks::UNDEFINED  79926784000                       # Cumulative time (in ticks) in various power states
system.cpu.dcache.tags.tagsinuse          1005.650837                       # Cycle average of tags in use
system.cpu.dcache.tags.total_refs            52024309                       # Total number of references to valid blocks.
system.cpu.dcache.tags.sampled_refs            432797                       # Sample count of references to valid blocks.
system.cpu.dcache.tags.avg_refs            120.204874                       # Average number of references to valid blocks.
system.cpu.dcache.tags.warmup_cycle            186500                       # Cycle when the warmup percentage was hit.
system.cpu.dcache.tags.occ_blocks::.cpu.data  1005.650837                       # Average occupied blocks per requestor
system.cpu.dcache.tags.occ_percent::.cpu.data     0.982081                       # Average percentage of cache occupancy
system.cpu.dcache.tags.occ_percent::total     0.982081                       # Average percentage of cache occupancy
system.cpu.dcache.tags.occ_task_id_blocks::1024         1024                       # Occupied blocks per task id
system.cpu.dcache.tags.age_task_id_blocks_1024::0          302                       # Occupied blocks per task id
system.cpu.dcache.tags.age_task_id_blocks_1024::1          493                       # Occupied blocks per task id
system.cpu.dcache.tags.age_task_id_blocks_1024::2          226                       # Occupied blocks per task id
system.cpu.dcache.tags.age_task_id_blocks_1024::3            2                       # Occupied blocks per task id
system.cpu.dcache.tags.age_task_id_blocks_1024::4            1                       # Occupied blocks per task id
system.cpu.dcache.tags.occ_task_id_percent::1024            1                       # Percentage of cache occupancy per task id
system.cpu.dcache.tags.tag_accesses         416940837                       # Number of tag accesses
system.cpu.dcache.tags.data_accesses        416940837                       # Number of data accesses
system.cpu.itb.walker.pwrStateResidencyTicks::UNDEFINED  79926784000                       # Cumulative time (in ticks) in various power states
system.cpu.itb.stage2_mmu.stage2_tlb.walker.pwrStateResidencyTicks::UNDEFINED  79926784000                       # Cumulative time (in ticks) in various power states

---------- End Simulation Statistics   ----------
