
---------- Begin Simulation Statistics ----------
final_tick                                83459841500                       # Number of ticks from beginning of simulation (restored from checkpoints and never reset)
host_inst_rate                                 270744                       # Simulator instruction rate (inst/s)
host_mem_usage                                 687924                       # Number of bytes of host memory used
host_op_rate                                   271276                       # Simulator op (including micro ops) rate (op/s)
host_seconds                                   369.35                       # Real time elapsed on the host
host_tick_rate                              225962828                       # Simulator tick rate (ticks/s)
sim_freq                                 1000000000000                       # Frequency of simulated ticks
sim_insts                                   100000000                       # Number of instructions simulated
sim_ops                                     100196369                       # Number of ops (including micro ops) simulated
sim_seconds                                  0.083460                       # Number of seconds simulated
sim_ticks                                 83459841500                       # Number of ticks simulated
system.cpu.branchPred.BTBCorrect                    0                       # Number of correct BTB predictions (this stat may not work properly.
system.cpu.branchPred.BTBHitPct             99.618141                       # BTB Hit Percentage
system.cpu.branchPred.BTBHits                 2095623                       # Number of BTB hits
system.cpu.branchPred.BTBLookups              2103656                       # Number of BTB lookups
system.cpu.branchPred.RASInCorrect                  6                       # Number of incorrect RAS predictions.
system.cpu.branchPred.condIncorrect             81391                       # Number of conditional branches incorrect
system.cpu.branchPred.condPredicted           3728100                       # Number of conditional branches predicted
system.cpu.branchPred.indirectHits                293                       # Number of indirect target hits.
system.cpu.branchPred.indirectLookups             998                       # Number of indirect predictor lookups.
system.cpu.branchPred.indirectMisses              705                       # Number of indirect misses.
system.cpu.branchPred.lookups                 4478216                       # Number of BP lookups
system.cpu.branchPred.usedRAS                   65357                       # Number of times the RAS was used to get a target.
system.cpu.branchPredindirectMispredicted          168                       # Number of mispredicted indirect branches.
system.cpu.committedInsts                   100000000                       # Number of instructions committed
system.cpu.committedOps                     100196369                       # Number of ops (including micro ops) committed
system.cpu.cpi                               1.669197                       # CPI: cycles per instruction
system.cpu.discardedOps                        190831                       # Number of ops (including micro ops) which were discarded before commit
system.cpu.dtb.accesses                             0                       # DTB accesses
system.cpu.dtb.align_faults                         0                       # Number of TLB faults due to alignment restrictions
system.cpu.dtb.domain_faults                        0                       # Number of TLB faults due to domain restrictions
system.cpu.dtb.flush_entries                        0                       # Number of entries that have been flushed from TLB
system.cpu.dtb.flush_tlb                            0                       # Number of times complete TLB was flushed
system.cpu.dtb.flush_tlb_asid                       0                       # Number of times TLB was flushed by ASID
system.cpu.dtb.flush_tlb_mva                        0                       # Number of times TLB was flushed by MVA
system.cpu.dtb.flush_tlb_mva_asid                   0                       # Number of times TLB was flushed by MVA & ASID
system.cpu.dtb.hits                                 0                       # DTB hits
system.cpu.dtb.inst_accesses                        0                       # ITB inst accesses
system.cpu.dtb.inst_hits                            0                       # ITB inst hits
system.cpu.dtb.inst_misses                          0                       # ITB inst misses
system.cpu.dtb.misses                               0                       # DTB misses
system.cpu.dtb.perms_faults                         0                       # Number of TLB faults due to permissions restrictions
system.cpu.dtb.prefetch_faults                      0                       # Number of TLB faults due to prefetch
system.cpu.dtb.read_accesses                        0                       # DTB read accesses
system.cpu.dtb.read_hits                            0                       # DTB read hits
system.cpu.dtb.read_misses                          0                       # DTB read misses
system.cpu.dtb.stage2_mmu.stage2_tlb.accesses            0                       # DTB accesses
system.cpu.dtb.stage2_mmu.stage2_tlb.align_faults            0                       # Number of TLB faults due to alignment restrictions
system.cpu.dtb.stage2_mmu.stage2_tlb.domain_faults            0                       # Number of TLB faults due to domain restrictions
system.cpu.dtb.stage2_mmu.stage2_tlb.flush_entries            0                       # Number of entries that have been flushed from TLB
system.cpu.dtb.stage2_mmu.stage2_tlb.flush_tlb            0                       # Number of times complete TLB was flushed
system.cpu.dtb.stage2_mmu.stage2_tlb.flush_tlb_asid            0                       # Number of times TLB was flushed by ASID
system.cpu.dtb.stage2_mmu.stage2_tlb.flush_tlb_mva            0                       # Number of times TLB was flushed by MVA
system.cpu.dtb.stage2_mmu.stage2_tlb.flush_tlb_mva_asid            0                       # Number of times TLB was flushed by MVA & ASID
system.cpu.dtb.stage2_mmu.stage2_tlb.hits            0                       # DTB hits
system.cpu.dtb.stage2_mmu.stage2_tlb.inst_accesses            0                       # ITB inst accesses
system.cpu.dtb.stage2_mmu.stage2_tlb.inst_hits            0                       # ITB inst hits
system.cpu.dtb.stage2_mmu.stage2_tlb.inst_misses            0                       # ITB inst misses
system.cpu.dtb.stage2_mmu.stage2_tlb.misses            0                       # DTB misses
system.cpu.dtb.stage2_mmu.stage2_tlb.perms_faults            0                       # Number of TLB faults due to permissions restrictions
system.cpu.dtb.stage2_mmu.stage2_tlb.prefetch_faults            0                       # Number of TLB faults due to prefetch
system.cpu.dtb.stage2_mmu.stage2_tlb.read_accesses            0                       # DTB read accesses
system.cpu.dtb.stage2_mmu.stage2_tlb.read_hits            0                       # DTB read hits
system.cpu.dtb.stage2_mmu.stage2_tlb.read_misses            0                       # DTB read misses
system.cpu.dtb.stage2_mmu.stage2_tlb.walker.walkRequestOrigin_Requested::Data            0                       # Table walker requests started/completed, data/inst
system.cpu.dtb.stage2_mmu.stage2_tlb.walker.walkRequestOrigin_Requested::Inst            0                       # Table walker requests started/completed, data/inst
system.cpu.dtb.stage2_mmu.stage2_tlb.walker.walkRequestOrigin_Requested::total            0                       # Table walker requests started/completed, data/inst
system.cpu.dtb.stage2_mmu.stage2_tlb.walker.walkRequestOrigin_Completed::Data            0                       # Table walker requests started/completed, data/inst
system.cpu.dtb.stage2_mmu.stage2_tlb.walker.walkRequestOrigin_Completed::Inst            0                       # Table walker requests started/completed, data/inst
system.cpu.dtb.stage2_mmu.stage2_tlb.walker.walkRequestOrigin_Completed::total            0                       # Table walker requests started/completed, data/inst
system.cpu.dtb.stage2_mmu.stage2_tlb.walker.walkRequestOrigin::total            0                       # Table walker requests started/completed, data/inst
system.cpu.dtb.stage2_mmu.stage2_tlb.walker.walks            0                       # Table walker walks requested
system.cpu.dtb.stage2_mmu.stage2_tlb.write_accesses            0                       # DTB write accesses
system.cpu.dtb.stage2_mmu.stage2_tlb.write_hits            0                       # DTB write hits
system.cpu.dtb.stage2_mmu.stage2_tlb.write_misses            0                       # DTB write misses
system.cpu.dtb.walker.walkRequestOrigin_Requested::Data            0                       # Table walker requests started/completed, data/inst
system.cpu.dtb.walker.walkRequestOrigin_Requested::Inst            0                       # Table walker requests started/completed, data/inst
system.cpu.dtb.walker.walkRequestOrigin_Requested::total            0                       # Table walker requests started/completed, data/inst
system.cpu.dtb.walker.walkRequestOrigin_Completed::Data            0                       # Table walker requests started/completed, data/inst
system.cpu.dtb.walker.walkRequestOrigin_Completed::Inst            0                       # Table walker requests started/completed, data/inst
system.cpu.dtb.walker.walkRequestOrigin_Completed::total            0                       # Table walker requests started/completed, data/inst
system.cpu.dtb.walker.walkRequestOrigin::total            0                       # Table walker requests started/completed, data/inst
system.cpu.dtb.walker.walks                         0                       # Table walker walks requested
system.cpu.dtb.write_accesses                       0                       # DTB write accesses
system.cpu.dtb.write_hits                           0                       # DTB write hits
system.cpu.dtb.write_misses                         0                       # DTB write misses
system.cpu.fetch2.amo_instructions                  0                       # Number of memory atomic instructions successfully decoded
system.cpu.fetch2.fp_instructions                   0                       # Number of floating point instructions successfully decoded
system.cpu.fetch2.int_instructions           42610624                       # Number of integer instructions successfully decoded
system.cpu.fetch2.load_instructions          43403353                       # Number of memory load instructions successfully decoded
system.cpu.fetch2.store_instructions         11001655                       # Number of memory store instructions successfully decoded
system.cpu.fetch2.vec_instructions                  0                       # Number of SIMD instructions successfully decoded
system.cpu.idleCycles                        34373590                       # Total number of cycles that the object has spent stopped
system.cpu.ipc                               0.599091                       # IPC: instructions per cycle
system.cpu.itb.accesses                             0                       # DTB accesses
system.cpu.itb.align_faults                         0                       # Number of TLB faults due to alignment restrictions
system.cpu.itb.domain_faults                        0                       # Number of TLB faults due to domain restrictions
system.cpu.itb.flush_entries                        0                       # Number of entries that have been flushed from TLB
system.cpu.itb.flush_tlb                            0                       # Number of times complete TLB was flushed
system.cpu.itb.flush_tlb_asid                       0                       # Number of times TLB was flushed by ASID
system.cpu.itb.flush_tlb_mva                        0                       # Number of times TLB was flushed by MVA
system.cpu.itb.flush_tlb_mva_asid                   0                       # Number of times TLB was flushed by MVA & ASID
system.cpu.itb.hits                                 0                       # DTB hits
system.cpu.itb.inst_accesses                        0                       # ITB inst accesses
system.cpu.itb.inst_hits                            0                       # ITB inst hits
system.cpu.itb.inst_misses                          0                       # ITB inst misses
system.cpu.itb.misses                               0                       # DTB misses
system.cpu.itb.perms_faults                         0                       # Number of TLB faults due to permissions restrictions
system.cpu.itb.prefetch_faults                      0                       # Number of TLB faults due to prefetch
system.cpu.itb.read_accesses                        0                       # DTB read accesses
system.cpu.itb.read_hits                            0                       # DTB read hits
system.cpu.itb.read_misses                          0                       # DTB read misses
system.cpu.itb.stage2_mmu.stage2_tlb.accesses            0                       # DTB accesses
system.cpu.itb.stage2_mmu.stage2_tlb.align_faults            0                       # Number of TLB faults due to alignment restrictions
system.cpu.itb.stage2_mmu.stage2_tlb.domain_faults            0                       # Number of TLB faults due to domain restrictions
system.cpu.itb.stage2_mmu.stage2_tlb.flush_entries            0                       # Number of entries that have been flushed from TLB
system.cpu.itb.stage2_mmu.stage2_tlb.flush_tlb            0                       # Number of times complete TLB was flushed
system.cpu.itb.stage2_mmu.stage2_tlb.flush_tlb_asid            0                       # Number of times TLB was flushed by ASID
system.cpu.itb.stage2_mmu.stage2_tlb.flush_tlb_mva            0                       # Number of times TLB was flushed by MVA
system.cpu.itb.stage2_mmu.stage2_tlb.flush_tlb_mva_asid            0                       # Number of times TLB was flushed by MVA & ASID
system.cpu.itb.stage2_mmu.stage2_tlb.hits            0                       # DTB hits
system.cpu.itb.stage2_mmu.stage2_tlb.inst_accesses            0                       # ITB inst accesses
system.cpu.itb.stage2_mmu.stage2_tlb.inst_hits            0                       # ITB inst hits
system.cpu.itb.stage2_mmu.stage2_tlb.inst_misses            0                       # ITB inst misses
system.cpu.itb.stage2_mmu.stage2_tlb.misses            0                       # DTB misses
system.cpu.itb.stage2_mmu.stage2_tlb.perms_faults            0                       # Number of TLB faults due to permissions restrictions
system.cpu.itb.stage2_mmu.stage2_tlb.prefetch_faults            0                       # Number of TLB faults due to prefetch
system.cpu.itb.stage2_mmu.stage2_tlb.read_accesses            0                       # DTB read accesses
system.cpu.itb.stage2_mmu.stage2_tlb.read_hits            0                       # DTB read hits
system.cpu.itb.stage2_mmu.stage2_tlb.read_misses            0                       # DTB read misses
system.cpu.itb.stage2_mmu.stage2_tlb.walker.walkRequestOrigin_Requested::Data            0                       # Table walker requests started/completed, data/inst
system.cpu.itb.stage2_mmu.stage2_tlb.walker.walkRequestOrigin_Requested::Inst            0                       # Table walker requests started/completed, data/inst
system.cpu.itb.stage2_mmu.stage2_tlb.walker.walkRequestOrigin_Requested::total            0                       # Table walker requests started/completed, data/inst
system.cpu.itb.stage2_mmu.stage2_tlb.walker.walkRequestOrigin_Completed::Data            0                       # Table walker requests started/completed, data/inst
system.cpu.itb.stage2_mmu.stage2_tlb.walker.walkRequestOrigin_Completed::Inst            0                       # Table walker requests started/completed, data/inst
system.cpu.itb.stage2_mmu.stage2_tlb.walker.walkRequestOrigin_Completed::total            0                       # Table walker requests started/completed, data/inst
system.cpu.itb.stage2_mmu.stage2_tlb.walker.walkRequestOrigin::total            0                       # Table walker requests started/completed, data/inst
system.cpu.itb.stage2_mmu.stage2_tlb.walker.walks            0                       # Table walker walks requested
system.cpu.itb.stage2_mmu.stage2_tlb.write_accesses            0                       # DTB write accesses
system.cpu.itb.stage2_mmu.stage2_tlb.write_hits            0                       # DTB write hits
system.cpu.itb.stage2_mmu.stage2_tlb.write_misses            0                       # DTB write misses
system.cpu.itb.walker.walkRequestOrigin_Requested::Data            0                       # Table walker requests started/completed, data/inst
system.cpu.itb.walker.walkRequestOrigin_Requested::Inst            0                       # Table walker requests started/completed, data/inst
system.cpu.itb.walker.walkRequestOrigin_Requested::total            0                       # Table walker requests started/completed, data/inst
system.cpu.itb.walker.walkRequestOrigin_Completed::Data            0                       # Table walker requests started/completed, data/inst
system.cpu.itb.walker.walkRequestOrigin_Completed::Inst            0                       # Table walker requests started/completed, data/inst
system.cpu.itb.walker.walkRequestOrigin_Completed::total            0                       # Table walker requests started/completed, data/inst
system.cpu.itb.walker.walkRequestOrigin::total            0                       # Table walker requests started/completed, data/inst
system.cpu.itb.walker.walks                         0                       # Table walker walks requested
system.cpu.itb.write_accesses                       0                       # DTB write accesses
system.cpu.itb.write_hits                           0                       # DTB write hits
system.cpu.itb.write_misses                         0                       # DTB write misses
system.cpu.numCycles                        166919683                       # number of cpu cycles simulated
system.cpu.numFetchSuspends                         0                       # Number of times Execute suspended instruction fetching
system.cpu.numWorkItemsCompleted                    0                       # number of work items this cpu completed
system.cpu.numWorkItemsStarted                      0                       # number of work items this cpu started
system.cpu.op_class_0::No_OpClass                   0      0.00%      0.00% # Class of committed instruction
system.cpu.op_class_0::IntAlu                46531437     46.44%     46.44% # Class of committed instruction
system.cpu.op_class_0::IntMult                  20720      0.02%     46.46% # Class of committed instruction
system.cpu.op_class_0::IntDiv                       0      0.00%     46.46% # Class of committed instruction
system.cpu.op_class_0::FloatAdd                     0      0.00%     46.46% # Class of committed instruction
system.cpu.op_class_0::FloatCmp                     0      0.00%     46.46% # Class of committed instruction
system.cpu.op_class_0::FloatCvt                     0      0.00%     46.46% # Class of committed instruction
system.cpu.op_class_0::FloatMult                    0      0.00%     46.46% # Class of committed instruction
system.cpu.op_class_0::FloatMultAcc                 0      0.00%     46.46% # Class of committed instruction
system.cpu.op_class_0::FloatDiv                     0      0.00%     46.46% # Class of committed instruction
system.cpu.op_class_0::FloatMisc                    0      0.00%     46.46% # Class of committed instruction
system.cpu.op_class_0::FloatSqrt                    0      0.00%     46.46% # Class of committed instruction
system.cpu.op_class_0::SimdAdd                      0      0.00%     46.46% # Class of committed instruction
system.cpu.op_class_0::SimdAddAcc                   0      0.00%     46.46% # Class of committed instruction
system.cpu.op_class_0::SimdAlu                      0      0.00%     46.46% # Class of committed instruction
system.cpu.op_class_0::SimdCmp                      0      0.00%     46.46% # Class of committed instruction
system.cpu.op_class_0::SimdCvt                      0      0.00%     46.46% # Class of committed instruction
system.cpu.op_class_0::SimdMisc                     0      0.00%     46.46% # Class of committed instruction
system.cpu.op_class_0::SimdMult                     0      0.00%     46.46% # Class of committed instruction
system.cpu.op_class_0::SimdMultAcc                  0      0.00%     46.46% # Class of committed instruction
system.cpu.op_class_0::SimdShift                    0      0.00%     46.46% # Class of committed instruction
system.cpu.op_class_0::SimdShiftAcc                 0      0.00%     46.46% # Class of committed instruction
system.cpu.op_class_0::SimdDiv                      0      0.00%     46.46% # Class of committed instruction
system.cpu.op_class_0::SimdSqrt                     0      0.00%     46.46% # Class of committed instruction
system.cpu.op_class_0::SimdFloatAdd                 0      0.00%     46.46% # Class of committed instruction
system.cpu.op_class_0::SimdFloatAlu                 0      0.00%     46.46% # Class of committed instruction
system.cpu.op_class_0::SimdFloatCmp                 0      0.00%     46.46% # Class of committed instruction
system.cpu.op_class_0::SimdFloatCvt                 0      0.00%     46.46% # Class of committed instruction
system.cpu.op_class_0::SimdFloatDiv                 0      0.00%     46.46% # Class of committed instruction
system.cpu.op_class_0::SimdFloatMisc               18      0.00%     46.46% # Class of committed instruction
system.cpu.op_class_0::SimdFloatMult                0      0.00%     46.46% # Class of committed instruction
system.cpu.op_class_0::SimdFloatMultAcc             0      0.00%     46.46% # Class of committed instruction
system.cpu.op_class_0::SimdFloatSqrt                0      0.00%     46.46% # Class of committed instruction
system.cpu.op_class_0::SimdReduceAdd                0      0.00%     46.46% # Class of committed instruction
system.cpu.op_class_0::SimdReduceAlu                0      0.00%     46.46% # Class of committed instruction
system.cpu.op_class_0::SimdReduceCmp                0      0.00%     46.46% # Class of committed instruction
system.cpu.op_class_0::SimdFloatReduceAdd            0      0.00%     46.46% # Class of committed instruction
system.cpu.op_class_0::SimdFloatReduceCmp            0      0.00%     46.46% # Class of committed instruction
system.cpu.op_class_0::SimdAes                      0      0.00%     46.46% # Class of committed instruction
system.cpu.op_class_0::SimdAesMix                   0      0.00%     46.46% # Class of committed instruction
system.cpu.op_class_0::SimdSha1Hash                 0      0.00%     46.46% # Class of committed instruction
system.cpu.op_class_0::SimdSha1Hash2                0      0.00%     46.46% # Class of committed instruction
system.cpu.op_class_0::SimdSha256Hash               0      0.00%     46.46% # Class of committed instruction
system.cpu.op_class_0::SimdSha256Hash2              0      0.00%     46.46% # Class of committed instruction
system.cpu.op_class_0::SimdShaSigma2                0      0.00%     46.46% # Class of committed instruction
system.cpu.op_class_0::SimdShaSigma3                0      0.00%     46.46% # Class of committed instruction
system.cpu.op_class_0::SimdPredAlu                  0      0.00%     46.46% # Class of committed instruction
system.cpu.op_class_0::MemRead               42693580     42.61%     89.07% # Class of committed instruction
system.cpu.op_class_0::MemWrite              10950614     10.93%    100.00% # Class of committed instruction
system.cpu.op_class_0::FloatMemRead                 0      0.00%    100.00% # Class of committed instruction
system.cpu.op_class_0::FloatMemWrite                0      0.00%    100.00% # Class of committed instruction
system.cpu.op_class_0::IprAccess                    0      0.00%    100.00% # Class of committed instruction
system.cpu.op_class_0::InstPrefetch                 0      0.00%    100.00% # Class of committed instruction
system.cpu.op_class_0::total                100196369                       # Class of committed instruction
system.cpu.tickCycles                       132546093                       # Number of cycles that the object actually ticked
system.cpu.workload.numSyscalls                    84                       # Number of system calls
system.membus.snoop_filter.hit_multi_requests            0                       # Number of requests hitting in the snoop filter with multiple (>1) holders of the requested data.
system.membus.snoop_filter.hit_multi_snoops            0                       # Number of snoops hitting in the snoop filter with multiple (>1) holders of the requested data.
system.membus.snoop_filter.hit_single_requests       106626                       # Number of requests hitting in the snoop filter with a single holder of the requested data.
system.membus.snoop_filter.hit_single_snoops            0                       # Number of snoops hitting in the snoop filter with a single holder of the requested data.
system.membus.snoop_filter.tot_requests        229819                       # Total number of requests made to the snoop filter.
system.membus.snoop_filter.tot_snoops               0                       # Total number of snoops made to the snoop filter.
system.tol2bus.snoop_filter.hit_multi_requests          182                       # Number of requests hitting in the snoop filter with multiple (>1) holders of the requested data.
system.tol2bus.snoop_filter.hit_multi_snoops            0                       # Number of snoops hitting in the snoop filter with multiple (>1) holders of the requested data.
system.tol2bus.snoop_filter.hit_single_requests       766951                       # Number of requests hitting in the snoop filter with a single holder of the requested data.
system.tol2bus.snoop_filter.hit_single_snoops          315                       # Number of snoops hitting in the snoop filter with a single holder of the requested data.
system.tol2bus.snoop_filter.tot_requests      1534397                       # Total number of requests made to the snoop filter.
system.tol2bus.snoop_filter.tot_snoops            315                       # Total number of snoops made to the snoop filter.
system.membus.pwrStateResidencyTicks::UNDEFINED  83459841500                       # Cumulative time (in ticks) in various power states
system.membus.trans_dist::ReadResp              38017                       # Transaction distribution
system.membus.trans_dist::WritebackDirty        72919                       # Transaction distribution
system.membus.trans_dist::CleanEvict            33696                       # Transaction distribution
system.membus.trans_dist::ReadExReq             85187                       # Transaction distribution
system.membus.trans_dist::ReadExResp            85186                       # Transaction distribution
system.membus.trans_dist::ReadSharedReq         38017                       # Transaction distribution
system.membus.pkt_count_system.l2.mem_side::system.mem_ctrls.port       353022                       # Packet count per connected master and slave (bytes)
system.membus.pkt_count::total                 353022                       # Packet count per connected master and slave (bytes)
system.membus.pkt_size_system.l2.mem_side::system.mem_ctrls.port     25103616                       # Cumulative packet size per connected master and slave (bytes)
system.membus.pkt_size::total                25103616                       # Cumulative packet size per connected master and slave (bytes)
system.membus.snoops                                0                       # Total snoops (count)
system.membus.snoopTraffic                          0                       # Total snoop traffic (bytes)
system.membus.snoop_fanout::samples            123204                       # Request fanout histogram
system.membus.snoop_fanout::mean                    0                       # Request fanout histogram
system.membus.snoop_fanout::stdev                   0                       # Request fanout histogram
system.membus.snoop_fanout::underflows              0      0.00%      0.00% # Request fanout histogram
system.membus.snoop_fanout::0                  123204    100.00%    100.00% # Request fanout histogram
system.membus.snoop_fanout::1                       0      0.00%    100.00% # Request fanout histogram
system.membus.snoop_fanout::overflows               0      0.00%    100.00% # Request fanout histogram
system.membus.snoop_fanout::min_value               0                       # Request fanout histogram
system.membus.snoop_fanout::max_value               0                       # Request fanout histogram
system.membus.snoop_fanout::total              123204                       # Request fanout histogram
system.membus.respLayer1.occupancy         1151935250                       # Layer occupancy (ticks)
system.membus.respLayer1.utilization              1.4                       # Layer utilization (%)
system.membus.reqLayer0.occupancy           841971000                       # Layer occupancy (ticks)
system.membus.reqLayer0.utilization               1.0                       # Layer utilization (%)
system.tol2bus.pwrStateResidencyTicks::UNDEFINED  83459841500                       # Cumulative time (in ticks) in various power states
system.tol2bus.trans_dist::ReadResp            428333                       # Transaction distribution
system.tol2bus.trans_dist::WritebackDirty       788325                       # Transaction distribution
system.tol2bus.trans_dist::WritebackClean          304                       # Transaction distribution
system.tol2bus.trans_dist::CleanEvict           85251                       # Transaction distribution
system.tol2bus.trans_dist::ReadExReq           339113                       # Transaction distribution
system.tol2bus.trans_dist::ReadExResp          339112                       # Transaction distribution
system.tol2bus.trans_dist::ReadCleanReq           542                       # Transaction distribution
system.tol2bus.trans_dist::ReadSharedReq       427791                       # Transaction distribution
system.tol2bus.pkt_count_system.cpu.icache.mem_side::system.l2.cpu_side         1388                       # Packet count per connected master and slave (bytes)
system.tol2bus.pkt_count_system.cpu.dcache.mem_side::system.l2.cpu_side      2300454                       # Packet count per connected master and slave (bytes)
system.tol2bus.pkt_count::total               2301842                       # Packet count per connected master and slave (bytes)
system.tol2bus.pkt_size_system.cpu.icache.mem_side::system.l2.cpu_side       108288                       # Cumulative packet size per connected master and slave (bytes)
system.tol2bus.pkt_size_system.cpu.dcache.mem_side::system.l2.cpu_side    189735552                       # Cumulative packet size per connected master and slave (bytes)
system.tol2bus.pkt_size::total              189843840                       # Cumulative packet size per connected master and slave (bytes)
system.tol2bus.snoops                          106929                       # Total snoops (count)
system.tol2bus.snoopTraffic                   9333632                       # Total snoop traffic (bytes)
system.tol2bus.snoop_fanout::samples           874375                       # Request fanout histogram
system.tol2bus.snoop_fanout::mean            0.000568                       # Request fanout histogram
system.tol2bus.snoop_fanout::stdev           0.023835                       # Request fanout histogram
system.tol2bus.snoop_fanout::underflows             0      0.00%      0.00% # Request fanout histogram
system.tol2bus.snoop_fanout::0                 873878     99.94%     99.94% # Request fanout histogram
system.tol2bus.snoop_fanout::1                    497      0.06%    100.00% # Request fanout histogram
system.tol2bus.snoop_fanout::2                      0      0.00%    100.00% # Request fanout histogram
system.tol2bus.snoop_fanout::overflows              0      0.00%    100.00% # Request fanout histogram
system.tol2bus.snoop_fanout::min_value              0                       # Request fanout histogram
system.tol2bus.snoop_fanout::max_value              1                       # Request fanout histogram
system.tol2bus.snoop_fanout::total             874375                       # Request fanout histogram
system.tol2bus.reqLayer0.occupancy         2198618500                       # Layer occupancy (ticks)
system.tol2bus.reqLayer0.utilization              2.6                       # Layer utilization (%)
system.tol2bus.respLayer1.occupancy        1917259995                       # Layer occupancy (ticks)
system.tol2bus.respLayer1.utilization             2.3                       # Layer utilization (%)
system.tol2bus.respLayer0.occupancy           1355000                       # Layer occupancy (ticks)
system.tol2bus.respLayer0.utilization             0.0                       # Layer utilization (%)
system.voltage_domain.voltage                       1                       # Voltage in Volts
system.clk_domain.clock                          1000                       # Clock period in ticks
system.l2.pwrStateResidencyTicks::UNDEFINED  83459841500                       # Cumulative time (in ticks) in various power states
system.l2.demand_hits::.cpu.inst                  119                       # number of demand (read+write) hits
system.l2.demand_hits::.cpu.data               644118                       # number of demand (read+write) hits
system.l2.demand_hits::total                   644237                       # number of demand (read+write) hits
system.l2.overall_hits::.cpu.inst                 119                       # number of overall hits
system.l2.overall_hits::.cpu.data              644118                       # number of overall hits
system.l2.overall_hits::total                  644237                       # number of overall hits
system.l2.demand_misses::.cpu.inst                423                       # number of demand (read+write) misses
system.l2.demand_misses::.cpu.data             122786                       # number of demand (read+write) misses
system.l2.demand_misses::total                 123209                       # number of demand (read+write) misses
system.l2.overall_misses::.cpu.inst               423                       # number of overall misses
system.l2.overall_misses::.cpu.data            122786                       # number of overall misses
system.l2.overall_misses::total                123209                       # number of overall misses
system.l2.demand_miss_latency::.cpu.inst     36794000                       # number of demand (read+write) miss cycles
system.l2.demand_miss_latency::.cpu.data  11194475500                       # number of demand (read+write) miss cycles
system.l2.demand_miss_latency::total      11231269500                       # number of demand (read+write) miss cycles
system.l2.overall_miss_latency::.cpu.inst     36794000                       # number of overall miss cycles
system.l2.overall_miss_latency::.cpu.data  11194475500                       # number of overall miss cycles
system.l2.overall_miss_latency::total     11231269500                       # number of overall miss cycles
system.l2.demand_accesses::.cpu.inst              542                       # number of demand (read+write) accesses
system.l2.demand_accesses::.cpu.data           766904                       # number of demand (read+write) accesses
system.l2.demand_accesses::total               767446                       # number of demand (read+write) accesses
system.l2.overall_accesses::.cpu.inst             542                       # number of overall (read+write) accesses
system.l2.overall_accesses::.cpu.data          766904                       # number of overall (read+write) accesses
system.l2.overall_accesses::total              767446                       # number of overall (read+write) accesses
system.l2.demand_miss_rate::.cpu.inst        0.780443                       # miss rate for demand accesses
system.l2.demand_miss_rate::.cpu.data        0.160106                       # miss rate for demand accesses
system.l2.demand_miss_rate::total            0.160544                       # miss rate for demand accesses
system.l2.overall_miss_rate::.cpu.inst       0.780443                       # miss rate for overall accesses
system.l2.overall_miss_rate::.cpu.data       0.160106                       # miss rate for overall accesses
system.l2.overall_miss_rate::total           0.160544                       # miss rate for overall accesses
system.l2.demand_avg_miss_latency::.cpu.inst 86983.451537                       # average overall miss latency
system.l2.demand_avg_miss_latency::.cpu.data 91170.617986                       # average overall miss latency
system.l2.demand_avg_miss_latency::total 91156.242645                       # average overall miss latency
system.l2.overall_avg_miss_latency::.cpu.inst 86983.451537                       # average overall miss latency
system.l2.overall_avg_miss_latency::.cpu.data 91170.617986                       # average overall miss latency
system.l2.overall_avg_miss_latency::total 91156.242645                       # average overall miss latency
system.l2.blocked_cycles::no_mshrs                  0                       # number of cycles access was blocked
system.l2.blocked_cycles::no_targets                0                       # number of cycles access was blocked
system.l2.blocked::no_mshrs                         0                       # number of cycles access was blocked
system.l2.blocked::no_targets                       0                       # number of cycles access was blocked
system.l2.avg_blocked_cycles::no_mshrs            nan                       # average number of cycles each access was blocked
system.l2.avg_blocked_cycles::no_targets          nan                       # average number of cycles each access was blocked
system.l2.writebacks::.writebacks               72919                       # number of writebacks
system.l2.writebacks::total                     72919                       # number of writebacks
system.l2.demand_mshr_hits::.cpu.data               5                       # number of demand (read+write) MSHR hits
system.l2.demand_mshr_hits::total                   5                       # number of demand (read+write) MSHR hits
system.l2.overall_mshr_hits::.cpu.data              5                       # number of overall MSHR hits
system.l2.overall_mshr_hits::total                  5                       # number of overall MSHR hits
system.l2.demand_mshr_misses::.cpu.inst           423                       # number of demand (read+write) MSHR misses
system.l2.demand_mshr_misses::.cpu.data        122781                       # number of demand (read+write) MSHR misses
system.l2.demand_mshr_misses::total            123204                       # number of demand (read+write) MSHR misses
system.l2.overall_mshr_misses::.cpu.inst          423                       # number of overall MSHR misses
system.l2.overall_mshr_misses::.cpu.data       122781                       # number of overall MSHR misses
system.l2.overall_mshr_misses::total           123204                       # number of overall MSHR misses
system.l2.demand_mshr_miss_latency::.cpu.inst     32564000                       # number of demand (read+write) MSHR miss cycles
system.l2.demand_mshr_miss_latency::.cpu.data   9966326000                       # number of demand (read+write) MSHR miss cycles
system.l2.demand_mshr_miss_latency::total   9998890000                       # number of demand (read+write) MSHR miss cycles
system.l2.overall_mshr_miss_latency::.cpu.inst     32564000                       # number of overall MSHR miss cycles
system.l2.overall_mshr_miss_latency::.cpu.data   9966326000                       # number of overall MSHR miss cycles
system.l2.overall_mshr_miss_latency::total   9998890000                       # number of overall MSHR miss cycles
system.l2.demand_mshr_miss_rate::.cpu.inst     0.780443                       # mshr miss rate for demand accesses
system.l2.demand_mshr_miss_rate::.cpu.data     0.160100                       # mshr miss rate for demand accesses
system.l2.demand_mshr_miss_rate::total       0.160538                       # mshr miss rate for demand accesses
system.l2.overall_mshr_miss_rate::.cpu.inst     0.780443                       # mshr miss rate for overall accesses
system.l2.overall_mshr_miss_rate::.cpu.data     0.160100                       # mshr miss rate for overall accesses
system.l2.overall_mshr_miss_rate::total      0.160538                       # mshr miss rate for overall accesses
system.l2.demand_avg_mshr_miss_latency::.cpu.inst 76983.451537                       # average overall mshr miss latency
system.l2.demand_avg_mshr_miss_latency::.cpu.data 81171.565633                       # average overall mshr miss latency
system.l2.demand_avg_mshr_miss_latency::total 81157.186455                       # average overall mshr miss latency
system.l2.overall_avg_mshr_miss_latency::.cpu.inst 76983.451537                       # average overall mshr miss latency
system.l2.overall_avg_mshr_miss_latency::.cpu.data 81171.565633                       # average overall mshr miss latency
system.l2.overall_avg_mshr_miss_latency::total 81157.186455                       # average overall mshr miss latency
system.l2.replacements                         106929                       # number of replacements
system.l2.WritebackDirty_hits::.writebacks       715406                       # number of WritebackDirty hits
system.l2.WritebackDirty_hits::total           715406                       # number of WritebackDirty hits
system.l2.WritebackDirty_accesses::.writebacks       715406                       # number of WritebackDirty accesses(hits+misses)
system.l2.WritebackDirty_accesses::total       715406                       # number of WritebackDirty accesses(hits+misses)
system.l2.WritebackClean_hits::.writebacks          291                       # number of WritebackClean hits
system.l2.WritebackClean_hits::total              291                       # number of WritebackClean hits
system.l2.WritebackClean_accesses::.writebacks          291                       # number of WritebackClean accesses(hits+misses)
system.l2.WritebackClean_accesses::total          291                       # number of WritebackClean accesses(hits+misses)
system.l2.CleanEvict_mshr_misses::.writebacks            1                       # number of CleanEvict MSHR misses
system.l2.CleanEvict_mshr_misses::total             1                       # number of CleanEvict MSHR misses
system.l2.CleanEvict_mshr_miss_rate::.writebacks          inf                       # mshr miss rate for CleanEvict accesses
system.l2.CleanEvict_mshr_miss_rate::total          inf                       # mshr miss rate for CleanEvict accesses
system.l2.ReadExReq_hits::.cpu.data            253926                       # number of ReadExReq hits
system.l2.ReadExReq_hits::total                253926                       # number of ReadExReq hits
system.l2.ReadExReq_misses::.cpu.data           85187                       # number of ReadExReq misses
system.l2.ReadExReq_misses::total               85187                       # number of ReadExReq misses
system.l2.ReadExReq_miss_latency::.cpu.data   7927703000                       # number of ReadExReq miss cycles
system.l2.ReadExReq_miss_latency::total    7927703000                       # number of ReadExReq miss cycles
system.l2.ReadExReq_accesses::.cpu.data        339113                       # number of ReadExReq accesses(hits+misses)
system.l2.ReadExReq_accesses::total            339113                       # number of ReadExReq accesses(hits+misses)
system.l2.ReadExReq_miss_rate::.cpu.data     0.251205                       # miss rate for ReadExReq accesses
system.l2.ReadExReq_miss_rate::total         0.251205                       # miss rate for ReadExReq accesses
system.l2.ReadExReq_avg_miss_latency::.cpu.data 93062.356932                       # average ReadExReq miss latency
system.l2.ReadExReq_avg_miss_latency::total 93062.356932                       # average ReadExReq miss latency
system.l2.ReadExReq_mshr_misses::.cpu.data        85187                       # number of ReadExReq MSHR misses
system.l2.ReadExReq_mshr_misses::total          85187                       # number of ReadExReq MSHR misses
system.l2.ReadExReq_mshr_miss_latency::.cpu.data   7075843000                       # number of ReadExReq MSHR miss cycles
system.l2.ReadExReq_mshr_miss_latency::total   7075843000                       # number of ReadExReq MSHR miss cycles
system.l2.ReadExReq_mshr_miss_rate::.cpu.data     0.251205                       # mshr miss rate for ReadExReq accesses
system.l2.ReadExReq_mshr_miss_rate::total     0.251205                       # mshr miss rate for ReadExReq accesses
system.l2.ReadExReq_avg_mshr_miss_latency::.cpu.data 83062.474321                       # average ReadExReq mshr miss latency
system.l2.ReadExReq_avg_mshr_miss_latency::total 83062.474321                       # average ReadExReq mshr miss latency
system.l2.ReadCleanReq_hits::.cpu.inst            119                       # number of ReadCleanReq hits
system.l2.ReadCleanReq_hits::total                119                       # number of ReadCleanReq hits
system.l2.ReadCleanReq_misses::.cpu.inst          423                       # number of ReadCleanReq misses
system.l2.ReadCleanReq_misses::total              423                       # number of ReadCleanReq misses
system.l2.ReadCleanReq_miss_latency::.cpu.inst     36794000                       # number of ReadCleanReq miss cycles
system.l2.ReadCleanReq_miss_latency::total     36794000                       # number of ReadCleanReq miss cycles
system.l2.ReadCleanReq_accesses::.cpu.inst          542                       # number of ReadCleanReq accesses(hits+misses)
system.l2.ReadCleanReq_accesses::total            542                       # number of ReadCleanReq accesses(hits+misses)
system.l2.ReadCleanReq_miss_rate::.cpu.inst     0.780443                       # miss rate for ReadCleanReq accesses
system.l2.ReadCleanReq_miss_rate::total      0.780443                       # miss rate for ReadCleanReq accesses
system.l2.ReadCleanReq_avg_miss_latency::.cpu.inst 86983.451537                       # average ReadCleanReq miss latency
system.l2.ReadCleanReq_avg_miss_latency::total 86983.451537                       # average ReadCleanReq miss latency
system.l2.ReadCleanReq_mshr_misses::.cpu.inst          423                       # number of ReadCleanReq MSHR misses
system.l2.ReadCleanReq_mshr_misses::total          423                       # number of ReadCleanReq MSHR misses
system.l2.ReadCleanReq_mshr_miss_latency::.cpu.inst     32564000                       # number of ReadCleanReq MSHR miss cycles
system.l2.ReadCleanReq_mshr_miss_latency::total     32564000                       # number of ReadCleanReq MSHR miss cycles
system.l2.ReadCleanReq_mshr_miss_rate::.cpu.inst     0.780443                       # mshr miss rate for ReadCleanReq accesses
system.l2.ReadCleanReq_mshr_miss_rate::total     0.780443                       # mshr miss rate for ReadCleanReq accesses
system.l2.ReadCleanReq_avg_mshr_miss_latency::.cpu.inst 76983.451537                       # average ReadCleanReq mshr miss latency
system.l2.ReadCleanReq_avg_mshr_miss_latency::total 76983.451537                       # average ReadCleanReq mshr miss latency
system.l2.ReadSharedReq_hits::.cpu.data        390192                       # number of ReadSharedReq hits
system.l2.ReadSharedReq_hits::total            390192                       # number of ReadSharedReq hits
system.l2.ReadSharedReq_misses::.cpu.data        37599                       # number of ReadSharedReq misses
system.l2.ReadSharedReq_misses::total           37599                       # number of ReadSharedReq misses
system.l2.ReadSharedReq_miss_latency::.cpu.data   3266772500                       # number of ReadSharedReq miss cycles
system.l2.ReadSharedReq_miss_latency::total   3266772500                       # number of ReadSharedReq miss cycles
system.l2.ReadSharedReq_accesses::.cpu.data       427791                       # number of ReadSharedReq accesses(hits+misses)
system.l2.ReadSharedReq_accesses::total        427791                       # number of ReadSharedReq accesses(hits+misses)
system.l2.ReadSharedReq_miss_rate::.cpu.data     0.087891                       # miss rate for ReadSharedReq accesses
system.l2.ReadSharedReq_miss_rate::total     0.087891                       # miss rate for ReadSharedReq accesses
system.l2.ReadSharedReq_avg_miss_latency::.cpu.data 86884.558100                       # average ReadSharedReq miss latency
system.l2.ReadSharedReq_avg_miss_latency::total 86884.558100                       # average ReadSharedReq miss latency
system.l2.ReadSharedReq_mshr_hits::.cpu.data            5                       # number of ReadSharedReq MSHR hits
system.l2.ReadSharedReq_mshr_hits::total            5                       # number of ReadSharedReq MSHR hits
system.l2.ReadSharedReq_mshr_misses::.cpu.data        37594                       # number of ReadSharedReq MSHR misses
system.l2.ReadSharedReq_mshr_misses::total        37594                       # number of ReadSharedReq MSHR misses
system.l2.ReadSharedReq_mshr_miss_latency::.cpu.data   2890483000                       # number of ReadSharedReq MSHR miss cycles
system.l2.ReadSharedReq_mshr_miss_latency::total   2890483000                       # number of ReadSharedReq MSHR miss cycles
system.l2.ReadSharedReq_mshr_miss_rate::.cpu.data     0.087879                       # mshr miss rate for ReadSharedReq accesses
system.l2.ReadSharedReq_mshr_miss_rate::total     0.087879                       # mshr miss rate for ReadSharedReq accesses
system.l2.ReadSharedReq_avg_mshr_miss_latency::.cpu.data 76886.817045                       # average ReadSharedReq mshr miss latency
system.l2.ReadSharedReq_avg_mshr_miss_latency::total 76886.817045                       # average ReadSharedReq mshr miss latency
system.l2.tags.pwrStateResidencyTicks::UNDEFINED  83459841500                       # Cumulative time (in ticks) in various power states
system.l2.tags.tagsinuse                 15947.824188                       # Cycle average of tags in use
system.l2.tags.total_refs                     1534208                       # Total number of references to valid blocks.
system.l2.tags.sampled_refs                    123313                       # Sample count of references to valid blocks.
system.l2.tags.avg_refs                     12.441576                       # Average number of references to valid blocks.
system.l2.tags.warmup_cycle                     82000                       # Cycle when the warmup percentage was hit.
system.l2.tags.occ_blocks::.writebacks      38.329093                       # Average occupied blocks per requestor
system.l2.tags.occ_blocks::.cpu.inst        52.516156                       # Average occupied blocks per requestor
system.l2.tags.occ_blocks::.cpu.data     15856.978939                       # Average occupied blocks per requestor
system.l2.tags.occ_percent::.writebacks      0.002339                       # Average percentage of cache occupancy
system.l2.tags.occ_percent::.cpu.inst        0.003205                       # Average percentage of cache occupancy
system.l2.tags.occ_percent::.cpu.data        0.967833                       # Average percentage of cache occupancy
system.l2.tags.occ_percent::total            0.973378                       # Average percentage of cache occupancy
system.l2.tags.occ_task_id_blocks::1024         16384                       # Occupied blocks per task id
system.l2.tags.age_task_id_blocks_1024::0           46                       # Occupied blocks per task id
system.l2.tags.age_task_id_blocks_1024::1           67                       # Occupied blocks per task id
system.l2.tags.age_task_id_blocks_1024::2          681                       # Occupied blocks per task id
system.l2.tags.age_task_id_blocks_1024::3         9062                       # Occupied blocks per task id
system.l2.tags.age_task_id_blocks_1024::4         6528                       # Occupied blocks per task id
system.l2.tags.occ_task_id_percent::1024            1                       # Percentage of cache occupancy per task id
system.l2.tags.tag_accesses                  12397033                       # Number of tag accesses
system.l2.tags.data_accesses                 12397033                       # Number of data accesses
system.cpu_voltage_domain.voltage                   1                       # Voltage in Volts
system.mem_ctrls.pwrStateResidencyTicks::UNDEFINED  83459841500                       # Cumulative time (in ticks) in various power states
system.mem_ctrls.bytes_read::.cpu.inst          54144                       # Number of bytes read from this memory
system.mem_ctrls.bytes_read::.cpu.data       15715840                       # Number of bytes read from this memory
system.mem_ctrls.bytes_read::total           15769984                       # Number of bytes read from this memory
system.mem_ctrls.bytes_inst_read::.cpu.inst        54144                       # Number of instructions bytes read from this memory
system.mem_ctrls.bytes_inst_read::total         54144                       # Number of instructions bytes read from this memory
system.mem_ctrls.bytes_written::.writebacks      9333632                       # Number of bytes written to this memory
system.mem_ctrls.bytes_written::total         9333632                       # Number of bytes written to this memory
system.mem_ctrls.num_reads::.cpu.inst             423                       # Number of read requests responded to by this memory
system.mem_ctrls.num_reads::.cpu.data          122780                       # Number of read requests responded to by this memory
system.mem_ctrls.num_reads::total              123203                       # Number of read requests responded to by this memory
system.mem_ctrls.num_writes::.writebacks        72919                       # Number of write requests responded to by this memory
system.mem_ctrls.num_writes::total              72919                       # Number of write requests responded to by this memory
system.mem_ctrls.bw_read::.cpu.inst            648743                       # Total read bandwidth from this memory (bytes/s)
system.mem_ctrls.bw_read::.cpu.data         188304216                       # Total read bandwidth from this memory (bytes/s)
system.mem_ctrls.bw_read::total             188952959                       # Total read bandwidth from this memory (bytes/s)
system.mem_ctrls.bw_inst_read::.cpu.inst       648743                       # Instruction read bandwidth from this memory (bytes/s)
system.mem_ctrls.bw_inst_read::total           648743                       # Instruction read bandwidth from this memory (bytes/s)
system.mem_ctrls.bw_write::.writebacks      111833809                       # Write bandwidth from this memory (bytes/s)
system.mem_ctrls.bw_write::total            111833809                       # Write bandwidth from this memory (bytes/s)
system.mem_ctrls.bw_total::.writebacks      111833809                       # Total bandwidth to/from this memory (bytes/s)
system.mem_ctrls.bw_total::.cpu.inst           648743                       # Total bandwidth to/from this memory (bytes/s)
system.mem_ctrls.bw_total::.cpu.data        188304216                       # Total bandwidth to/from this memory (bytes/s)
system.mem_ctrls.bw_total::total            300786768                       # Total bandwidth to/from this memory (bytes/s)
system.mem_ctrls.avgPriority_.writebacks::samples    145838.00                       # Average QoS priority value for accepted requests
system.mem_ctrls.avgPriority_.cpu.inst::samples       846.00                       # Average QoS priority value for accepted requests
system.mem_ctrls.avgPriority_.cpu.data::samples    245526.00                       # Average QoS priority value for accepted requests
system.mem_ctrls.priorityMinLatency      0.000000018750                       # per QoS priority minimum request to response latency (s)
system.mem_ctrls.priorityMaxLatency      0.003474474500                       # per QoS priority maximum request to response latency (s)
system.mem_ctrls.numReadWriteTurnArounds         8783                       # Number of turnarounds from READ to WRITE
system.mem_ctrls.numWriteReadTurnArounds         8783                       # Number of turnarounds from WRITE to READ
system.mem_ctrls.numStayReadState              449838                       # Number of times bus staying in READ state
system.mem_ctrls.numStayWriteState             137215                       # Number of times bus staying in WRITE state
system.mem_ctrls.readReqs                      123204                       # Number of read requests accepted
system.mem_ctrls.writeReqs                      72919                       # Number of write requests accepted
system.mem_ctrls.readBursts                    246408                       # Number of DRAM read bursts, including those serviced by the write queue
system.mem_ctrls.writeBursts                   145838                       # Number of DRAM write bursts, including those merged in the write queue
system.mem_ctrls.servicedByWrQ                     36                       # Number of DRAM read bursts serviced by the write queue
system.mem_ctrls.mergedWrBursts                     0                       # Number of DRAM write bursts merged with an existing one
system.mem_ctrls.neitherReadNorWriteReqs            0                       # Number of requests that are neither read nor write
system.mem_ctrls.perBankRdBursts::0             15862                       # Per bank write bursts
system.mem_ctrls.perBankRdBursts::1             15654                       # Per bank write bursts
system.mem_ctrls.perBankRdBursts::2             15662                       # Per bank write bursts
system.mem_ctrls.perBankRdBursts::3             15334                       # Per bank write bursts
system.mem_ctrls.perBankRdBursts::4             15372                       # Per bank write bursts
system.mem_ctrls.perBankRdBursts::5             15268                       # Per bank write bursts
system.mem_ctrls.perBankRdBursts::6             15138                       # Per bank write bursts
system.mem_ctrls.perBankRdBursts::7             15250                       # Per bank write bursts
system.mem_ctrls.perBankRdBursts::8             15194                       # Per bank write bursts
system.mem_ctrls.perBankRdBursts::9             15172                       # Per bank write bursts
system.mem_ctrls.perBankRdBursts::10            15286                       # Per bank write bursts
system.mem_ctrls.perBankRdBursts::11            15304                       # Per bank write bursts
system.mem_ctrls.perBankRdBursts::12            15446                       # Per bank write bursts
system.mem_ctrls.perBankRdBursts::13            15432                       # Per bank write bursts
system.mem_ctrls.perBankRdBursts::14            15454                       # Per bank write bursts
system.mem_ctrls.perBankRdBursts::15            15544                       # Per bank write bursts
system.mem_ctrls.perBankWrBursts::0              9348                       # Per bank write bursts
system.mem_ctrls.perBankWrBursts::1              9374                       # Per bank write bursts
system.mem_ctrls.perBankWrBursts::2              9382                       # Per bank write bursts
system.mem_ctrls.perBankWrBursts::3              9142                       # Per bank write bursts
system.mem_ctrls.perBankWrBursts::4              9126                       # Per bank write bursts
system.mem_ctrls.perBankWrBursts::5              9086                       # Per bank write bursts
system.mem_ctrls.perBankWrBursts::6              8984                       # Per bank write bursts
system.mem_ctrls.perBankWrBursts::7              8962                       # Per bank write bursts
system.mem_ctrls.perBankWrBursts::8              8966                       # Per bank write bursts
system.mem_ctrls.perBankWrBursts::9              8922                       # Per bank write bursts
system.mem_ctrls.perBankWrBursts::10             9012                       # Per bank write bursts
system.mem_ctrls.perBankWrBursts::11             8960                       # Per bank write bursts
system.mem_ctrls.perBankWrBursts::12             9080                       # Per bank write bursts
system.mem_ctrls.perBankWrBursts::13             9142                       # Per bank write bursts
system.mem_ctrls.perBankWrBursts::14             9174                       # Per bank write bursts
system.mem_ctrls.perBankWrBursts::15             9149                       # Per bank write bursts
system.mem_ctrls.avgRdQLen                       2.06                       # Average read queue length when enqueuing
system.mem_ctrls.avgWrQLen                      25.29                       # Average write queue length when enqueuing
system.mem_ctrls.totQLat                   4602511500                       # Total ticks spent queuing
system.mem_ctrls.totBusLat                 1231860000                       # Total ticks spent in databus transfers
system.mem_ctrls.totMemAccLat              9221986500                       # Total ticks spent from burst creation until serviced by the DRAM
system.mem_ctrls.avgQLat                     18681.15                       # Average queueing delay per DRAM burst
system.mem_ctrls.avgBusLat                    5000.00                       # Average bus latency per DRAM burst
system.mem_ctrls.avgMemAccLat                37431.15                       # Average memory access latency per DRAM burst
system.mem_ctrls.numRdRetry                         0                       # Number of times read queue was full causing retry
system.mem_ctrls.numWrRetry                         0                       # Number of times write queue was full causing retry
system.mem_ctrls.readRowHits                   203238                       # Number of row buffer hits during reads
system.mem_ctrls.writeRowHits                  116169                       # Number of row buffer hits during writes
system.mem_ctrls.readRowHitRate                 82.49                       # Row buffer hit rate for reads
system.mem_ctrls.writeRowHitRate                79.66                       # Row buffer hit rate for writes
system.mem_ctrls.readPktSize::0                     0                       # Read request sizes (log2)
system.mem_ctrls.readPktSize::1                     0                       # Read request sizes (log2)
system.mem_ctrls.readPktSize::2                     0                       # Read request sizes (log2)
system.mem_ctrls.readPktSize::3                     0                       # Read request sizes (log2)
system.mem_ctrls.readPktSize::4                     0                       # Read request sizes (log2)
system.mem_ctrls.readPktSize::5                     0                       # Read request sizes (log2)
system.mem_ctrls.readPktSize::6                246408                       # Read request sizes (log2)
system.mem_ctrls.writePktSize::0                    0                       # Write request sizes (log2)
system.mem_ctrls.writePktSize::1                    0                       # Write request sizes (log2)
system.mem_ctrls.writePktSize::2                    0                       # Write request sizes (log2)
system.mem_ctrls.writePktSize::3                    0                       # Write request sizes (log2)
system.mem_ctrls.writePktSize::4                    0                       # Write request sizes (log2)
system.mem_ctrls.writePktSize::5                    0                       # Write request sizes (log2)
system.mem_ctrls.writePktSize::6               145838                       # Write request sizes (log2)
system.mem_ctrls.rdQLenPdf::0                  103794                       # What read queue length does an incoming req see
system.mem_ctrls.rdQLenPdf::1                  104148                       # What read queue length does an incoming req see
system.mem_ctrls.rdQLenPdf::2                   19385                       # What read queue length does an incoming req see
system.mem_ctrls.rdQLenPdf::3                   19032                       # What read queue length does an incoming req see
system.mem_ctrls.rdQLenPdf::4                       6                       # What read queue length does an incoming req see
system.mem_ctrls.rdQLenPdf::5                       5                       # What read queue length does an incoming req see
system.mem_ctrls.rdQLenPdf::6                       1                       # What read queue length does an incoming req see
system.mem_ctrls.rdQLenPdf::7                       1                       # What read queue length does an incoming req see
system.mem_ctrls.rdQLenPdf::8                       0                       # What read queue length does an incoming req see
system.mem_ctrls.rdQLenPdf::9                       0                       # What read queue length does an incoming req see
system.mem_ctrls.rdQLenPdf::10                      0                       # What read queue length does an incoming req see
system.mem_ctrls.rdQLenPdf::11                      0                       # What read queue length does an incoming req see
system.mem_ctrls.rdQLenPdf::12                      0                       # What read queue length does an incoming req see
system.mem_ctrls.rdQLenPdf::13                      0                       # What read queue length does an incoming req see
system.mem_ctrls.rdQLenPdf::14                      0                       # What read queue length does an incoming req see
system.mem_ctrls.rdQLenPdf::15                      0                       # What read queue length does an incoming req see
system.mem_ctrls.rdQLenPdf::16                      0                       # What read queue length does an incoming req see
system.mem_ctrls.rdQLenPdf::17                      0                       # What read queue length does an incoming req see
system.mem_ctrls.rdQLenPdf::18                      0                       # What read queue length does an incoming req see
system.mem_ctrls.rdQLenPdf::19                      0                       # What read queue length does an incoming req see
system.mem_ctrls.rdQLenPdf::20                      0                       # What read queue length does an incoming req see
system.mem_ctrls.rdQLenPdf::21                      0                       # What read queue length does an incoming req see
system.mem_ctrls.rdQLenPdf::22                      0                       # What read queue length does an incoming req see
system.mem_ctrls.rdQLenPdf::23                      0                       # What read queue length does an incoming req see
system.mem_ctrls.rdQLenPdf::24                      0                       # What read queue length does an incoming req see
system.mem_ctrls.rdQLenPdf::25                      0                       # What read queue length does an incoming req see
system.mem_ctrls.rdQLenPdf::26                      0                       # What read queue length does an incoming req see
system.mem_ctrls.rdQLenPdf::27                      0                       # What read queue length does an incoming req see
system.mem_ctrls.rdQLenPdf::28                      0                       # What read queue length does an incoming req see
system.mem_ctrls.rdQLenPdf::29                      0                       # What read queue length does an incoming req see
system.mem_ctrls.rdQLenPdf::30                      0                       # What read queue length does an incoming req see
system.mem_ctrls.rdQLenPdf::31                      0                       # What read queue length does an incoming req see
system.mem_ctrls.wrQLenPdf::0                       1                       # What write queue length does an incoming req see
system.mem_ctrls.wrQLenPdf::1                       1                       # What write queue length does an incoming req see
system.mem_ctrls.wrQLenPdf::2                       1                       # What write queue length does an incoming req see
system.mem_ctrls.wrQLenPdf::3                       1                       # What write queue length does an incoming req see
system.mem_ctrls.wrQLenPdf::4                       1                       # What write queue length does an incoming req see
system.mem_ctrls.wrQLenPdf::5                       1                       # What write queue length does an incoming req see
system.mem_ctrls.wrQLenPdf::6                       1                       # What write queue length does an incoming req see
system.mem_ctrls.wrQLenPdf::7                       1                       # What write queue length does an incoming req see
system.mem_ctrls.wrQLenPdf::8                       1                       # What write queue length does an incoming req see
system.mem_ctrls.wrQLenPdf::9                       1                       # What write queue length does an incoming req see
system.mem_ctrls.wrQLenPdf::10                      1                       # What write queue length does an incoming req see
system.mem_ctrls.wrQLenPdf::11                      1                       # What write queue length does an incoming req see
system.mem_ctrls.wrQLenPdf::12                      1                       # What write queue length does an incoming req see
system.mem_ctrls.wrQLenPdf::13                      1                       # What write queue length does an incoming req see
system.mem_ctrls.wrQLenPdf::14                      1                       # What write queue length does an incoming req see
system.mem_ctrls.wrQLenPdf::15                   2373                       # What write queue length does an incoming req see
system.mem_ctrls.wrQLenPdf::16                   2410                       # What write queue length does an incoming req see
system.mem_ctrls.wrQLenPdf::17                   5615                       # What write queue length does an incoming req see
system.mem_ctrls.wrQLenPdf::18                   5919                       # What write queue length does an incoming req see
system.mem_ctrls.wrQLenPdf::19                   8002                       # What write queue length does an incoming req see
system.mem_ctrls.wrQLenPdf::20                   8887                       # What write queue length does an incoming req see
system.mem_ctrls.wrQLenPdf::21                   8864                       # What write queue length does an incoming req see
system.mem_ctrls.wrQLenPdf::22                   8861                       # What write queue length does an incoming req see
system.mem_ctrls.wrQLenPdf::23                   8843                       # What write queue length does an incoming req see
system.mem_ctrls.wrQLenPdf::24                   9405                       # What write queue length does an incoming req see
system.mem_ctrls.wrQLenPdf::25                  10485                       # What write queue length does an incoming req see
system.mem_ctrls.wrQLenPdf::26                  10711                       # What write queue length does an incoming req see
system.mem_ctrls.wrQLenPdf::27                   9637                       # What write queue length does an incoming req see
system.mem_ctrls.wrQLenPdf::28                   9070                       # What write queue length does an incoming req see
system.mem_ctrls.wrQLenPdf::29                   9097                       # What write queue length does an incoming req see
system.mem_ctrls.wrQLenPdf::30                   8846                       # What write queue length does an incoming req see
system.mem_ctrls.wrQLenPdf::31                   8798                       # What write queue length does an incoming req see
system.mem_ctrls.wrQLenPdf::32                   8792                       # What write queue length does an incoming req see
system.mem_ctrls.wrQLenPdf::33                   1196                       # What write queue length does an incoming req see
system.mem_ctrls.wrQLenPdf::34                     10                       # What write queue length does an incoming req see
system.mem_ctrls.wrQLenPdf::35                      2                       # What write queue length does an incoming req see
system.mem_ctrls.wrQLenPdf::36                      0                       # What write queue length does an incoming req see
system.mem_ctrls.wrQLenPdf::37                      0                       # What write queue length does an incoming req see
system.mem_ctrls.wrQLenPdf::38                      0                       # What write queue length does an incoming req see
system.mem_ctrls.wrQLenPdf::39                      0                       # What write queue length does an incoming req see
system.mem_ctrls.wrQLenPdf::40                      0                       # What write queue length does an incoming req see
system.mem_ctrls.wrQLenPdf::41                      0                       # What write queue length does an incoming req see
system.mem_ctrls.wrQLenPdf::42                      0                       # What write queue length does an incoming req see
system.mem_ctrls.wrQLenPdf::43                      0                       # What write queue length does an incoming req see
system.mem_ctrls.wrQLenPdf::44                      0                       # What write queue length does an incoming req see
system.mem_ctrls.wrQLenPdf::45                      0                       # What write queue length does an incoming req see
system.mem_ctrls.wrQLenPdf::46                      0                       # What write queue length does an incoming req see
system.mem_ctrls.wrQLenPdf::47                      0                       # What write queue length does an incoming req see
system.mem_ctrls.wrQLenPdf::48                      0                       # What write queue length does an incoming req see
system.mem_ctrls.wrQLenPdf::49                      0                       # What write queue length does an incoming req see
system.mem_ctrls.wrQLenPdf::50                      0                       # What write queue length does an incoming req see
system.mem_ctrls.wrQLenPdf::51                      0                       # What write queue length does an incoming req see
system.mem_ctrls.wrQLenPdf::52                      0                       # What write queue length does an incoming req see
system.mem_ctrls.wrQLenPdf::53                      0                       # What write queue length does an incoming req see
system.mem_ctrls.wrQLenPdf::54                      0                       # What write queue length does an incoming req see
system.mem_ctrls.wrQLenPdf::55                      0                       # What write queue length does an incoming req see
system.mem_ctrls.wrQLenPdf::56                      0                       # What write queue length does an incoming req see
system.mem_ctrls.wrQLenPdf::57                      0                       # What write queue length does an incoming req see
system.mem_ctrls.wrQLenPdf::58                      0                       # What write queue length does an incoming req see
system.mem_ctrls.wrQLenPdf::59                      0                       # What write queue length does an incoming req see
system.mem_ctrls.wrQLenPdf::60                      0                       # What write queue length does an incoming req see
system.mem_ctrls.wrQLenPdf::61                      0                       # What write queue length does an incoming req see
system.mem_ctrls.wrQLenPdf::62                      0                       # What write queue length does an incoming req see
system.mem_ctrls.wrQLenPdf::63                      0                       # What write queue length does an incoming req see
system.mem_ctrls.bytesPerActivate::samples        72762                       # Bytes accessed per row activation
system.mem_ctrls.bytesPerActivate::mean    344.933454                       # Bytes accessed per row activation
system.mem_ctrls.bytesPerActivate::gmean   219.850303                       # Bytes accessed per row activation
system.mem_ctrls.bytesPerActivate::stdev   358.013908                       # Bytes accessed per row activation
system.mem_ctrls.bytesPerActivate::0-127         3542      4.87%      4.87% # Bytes accessed per row activation
system.mem_ctrls.bytesPerActivate::128-255        44531     61.20%     66.07% # Bytes accessed per row activation
system.mem_ctrls.bytesPerActivate::256-383         4512      6.20%     72.27% # Bytes accessed per row activation
system.mem_ctrls.bytesPerActivate::384-511         1676      2.30%     74.57% # Bytes accessed per row activation
system.mem_ctrls.bytesPerActivate::512-639         1359      1.87%     76.44% # Bytes accessed per row activation
system.mem_ctrls.bytesPerActivate::640-767         1810      2.49%     78.93% # Bytes accessed per row activation
system.mem_ctrls.bytesPerActivate::768-895          826      1.14%     80.06% # Bytes accessed per row activation
system.mem_ctrls.bytesPerActivate::896-1023          874      1.20%     81.26% # Bytes accessed per row activation
system.mem_ctrls.bytesPerActivate::1024-1151        13632     18.74%    100.00% # Bytes accessed per row activation
system.mem_ctrls.bytesPerActivate::total        72762                       # Bytes accessed per row activation
system.mem_ctrls.rdPerTurnAround::samples         8783                       # Reads before turning the bus around for writes
system.mem_ctrls.rdPerTurnAround::mean      28.048958                       # Reads before turning the bus around for writes
system.mem_ctrls.rdPerTurnAround::gmean     22.315648                       # Reads before turning the bus around for writes
system.mem_ctrls.rdPerTurnAround::stdev     61.378137                       # Reads before turning the bus around for writes
system.mem_ctrls.rdPerTurnAround::0-255          8753     99.66%     99.66% # Reads before turning the bus around for writes
system.mem_ctrls.rdPerTurnAround::256-511           26      0.30%     99.95% # Reads before turning the bus around for writes
system.mem_ctrls.rdPerTurnAround::512-767            2      0.02%     99.98% # Reads before turning the bus around for writes
system.mem_ctrls.rdPerTurnAround::1536-1791            1      0.01%     99.99% # Reads before turning the bus around for writes
system.mem_ctrls.rdPerTurnAround::4608-4863            1      0.01%    100.00% # Reads before turning the bus around for writes
[...]
system.cpu.icache.ReadReq_avg_miss_latency::total 72858.856089                       # average ReadReq miss latency
system.cpu.icache.ReadReq_mshr_misses::.cpu.inst          542                       # number of ReadReq MSHR misses
system.cpu.icache.ReadReq_mshr_misses::total          542                       # number of ReadReq MSHR misses
system.cpu.icache.ReadReq_mshr_miss_latency::.cpu.inst     38947500                       # number of ReadReq MSHR miss cycles
system.cpu.icache.ReadReq_mshr_miss_latency::total     38947500                       # number of ReadReq MSHR miss cycles
system.cpu.icache.ReadReq_mshr_miss_rate::.cpu.inst     0.000067                       # mshr miss rate for ReadReq accesses
system.cpu.icache.ReadReq_mshr_miss_rate::total     0.000067                       # mshr miss rate for ReadReq accesses
system.cpu.icache.ReadReq_avg_mshr_miss_latency::.cpu.inst 71858.856089                       # average ReadReq mshr miss latency
system.cpu.icache.ReadReq_avg_mshr_miss_latency::total 71858.856089                       # average ReadReq mshr miss latency
system.cpu.icache.tags.pwrStateResidencyTicks::UNDEFINED  83459841500                       # Cumulative time (in ticks) in various power states
system.cpu.icache.tags.tagsinuse           205.012459                       # Cycle average of tags in use
system.cpu.icache.tags.total_refs             8051273                       # Total number of references to valid blocks.
system.cpu.icache.tags.sampled_refs               542                       # Sample count of references to valid blocks.
system.cpu.icache.tags.avg_refs          14854.747232                       # Average number of references to valid blocks.
system.cpu.icache.tags.warmup_cycle             92500                       # Cycle when the warmup percentage was hit.
system.cpu.icache.tags.occ_blocks::.cpu.inst   205.012459                       # Average occupied blocks per requestor
system.cpu.icache.tags.occ_percent::.cpu.inst     0.800830                       # Average percentage of cache occupancy
system.cpu.icache.tags.occ_percent::total     0.800830                       # Average percentage of cache occupancy
system.cpu.icache.tags.occ_task_id_blocks::1024          238                       # Occupied blocks per task id
system.cpu.icache.tags.age_task_id_blocks_1024::3           52                       # Occupied blocks per task id
system.cpu.icache.tags.age_task_id_blocks_1024::4          186                       # Occupied blocks per task id
system.cpu.icache.tags.occ_task_id_percent::1024     0.929688                       # Percentage of cache occupancy per task id
system.cpu.icache.tags.tag_accesses          16103088                       # Number of tag accesses
system.cpu.icache.tags.data_accesses         16103088                       # Number of data accesses
system.cpu.dtb.walker.pwrStateResidencyTicks::UNDEFINED  83459841500                       # Cumulative time (in ticks) in various power states
system.cpu.dtb.stage2_mmu.stage2_tlb.walker.pwrStateResidencyTicks::UNDEFINED  83459841500                       # Cumulative time (in ticks) in various power states
system.cpu.dcache.pwrStateResidencyTicks::UNDEFINED  83459841500                       # Cumulative time (in ticks) in various power states
system.cpu.dcache.demand_hits::.cpu.data     51255263                       # number of demand (read+write) hits
system.cpu.dcache.demand_hits::total         51255263                       # number of demand (read+write) hits
system.cpu.dcache.overall_hits::.cpu.data     51255829                       # number of overall hits
system.cpu.dcache.overall_hits::total        51255829                       # number of overall hits
system.cpu.dcache.demand_misses::.cpu.data       798360                       # number of demand (read+write) misses
system.cpu.dcache.demand_misses::total         798360                       # number of demand (read+write) misses
system.cpu.dcache.overall_misses::.cpu.data       806213                       # number of overall misses
system.cpu.dcache.overall_misses::total        806213                       # number of overall misses
system.cpu.dcache.demand_miss_latency::.cpu.data  22012426000                       # number of demand (read+write) miss cycles
system.cpu.dcache.demand_miss_latency::total  22012426000                       # number of demand (read+write) miss cycles
system.cpu.dcache.overall_miss_latency::.cpu.data  22012426000                       # number of overall miss cycles
system.cpu.dcache.overall_miss_latency::total  22012426000                       # number of overall miss cycles
system.cpu.dcache.demand_accesses::.cpu.data     52053623                       # number of demand (read+write) accesses
system.cpu.dcache.demand_accesses::total     52053623                       # number of demand (read+write) accesses
system.cpu.dcache.overall_accesses::.cpu.data     52062042                       # number of overall (read+write) accesses
system.cpu.dcache.overall_accesses::total     52062042                       # number of overall (read+write) accesses
system.cpu.dcache.demand_miss_rate::.cpu.data     0.015337                       # miss rate for demand accesses
system.cpu.dcache.demand_miss_rate::total     0.015337                       # miss rate for demand accesses
system.cpu.dcache.overall_miss_rate::.cpu.data     0.015486                       # miss rate for overall accesses
system.cpu.dcache.overall_miss_rate::total     0.015486                       # miss rate for overall accesses
system.cpu.dcache.demand_avg_miss_latency::.cpu.data 27572.055213                       # average overall miss latency
system.cpu.dcache.demand_avg_miss_latency::total 27572.055213                       # average overall miss latency
system.cpu.dcache.overall_avg_miss_latency::.cpu.data 27303.486796                       # average overall miss latency
system.cpu.dcache.overall_avg_miss_latency::total 27303.486796                       # average overall miss latency
system.cpu.dcache.blocked_cycles::no_mshrs            0                       # number of cycles access was blocked
system.cpu.dcache.blocked_cycles::no_targets            0                       # number of cycles access was blocked
system.cpu.dcache.blocked::no_mshrs                 0                       # number of cycles access was blocked
system.cpu.dcache.blocked::no_targets               0                       # number of cycles access was blocked
system.cpu.dcache.avg_blocked_cycles::no_mshrs          nan                       # average number of cycles each access was blocked
system.cpu.dcache.avg_blocked_cycles::no_targets          nan                       # average number of cycles each access was blocked
system.cpu.dcache.writebacks::.writebacks       715406                       # number of writebacks
system.cpu.dcache.writebacks::total            715406                       # number of writebacks
system.cpu.dcache.demand_mshr_hits::.cpu.data        35411                       # number of demand (read+write) MSHR hits
system.cpu.dcache.demand_mshr_hits::total        35411                       # number of demand (read+write) MSHR hits
system.cpu.dcache.overall_mshr_hits::.cpu.data        35411                       # number of overall MSHR hits
system.cpu.dcache.overall_mshr_hits::total        35411                       # number of overall MSHR hits
system.cpu.dcache.demand_mshr_misses::.cpu.data       762949                       # number of demand (read+write) MSHR misses
system.cpu.dcache.demand_mshr_misses::total       762949                       # number of demand (read+write) MSHR misses
system.cpu.dcache.overall_mshr_misses::.cpu.data       766904                       # number of overall MSHR misses
system.cpu.dcache.overall_mshr_misses::total       766904                       # number of overall MSHR misses
system.cpu.dcache.demand_mshr_miss_latency::.cpu.data  18822040500                       # number of demand (read+write) MSHR miss cycles
system.cpu.dcache.demand_mshr_miss_latency::total  18822040500                       # number of demand (read+write) MSHR miss cycles
system.cpu.dcache.overall_mshr_miss_latency::.cpu.data  19155990000                       # number of overall MSHR miss cycles
system.cpu.dcache.overall_mshr_miss_latency::total  19155990000                       # number of overall MSHR miss cycles
system.cpu.dcache.demand_mshr_miss_rate::.cpu.data     0.014657                       # mshr miss rate for demand accesses
system.cpu.dcache.demand_mshr_miss_rate::total     0.014657                       # mshr miss rate for demand accesses
system.cpu.dcache.overall_mshr_miss_rate::.cpu.data     0.014731                       # mshr miss rate for overall accesses
system.cpu.dcache.overall_mshr_miss_rate::total     0.014731                       # mshr miss rate for overall accesses
system.cpu.dcache.demand_avg_mshr_miss_latency::.cpu.data 24670.116220                       # average overall mshr miss latency
system.cpu.dcache.demand_avg_mshr_miss_latency::total 24670.116220                       # average overall mshr miss latency
system.cpu.dcache.overall_avg_mshr_miss_latency::.cpu.data 24978.341487                       # average overall mshr miss latency
system.cpu.dcache.overall_avg_mshr_miss_latency::total 24978.341487                       # average overall mshr miss latency
system.cpu.dcache.replacements                 766647                       # number of replacements
system.cpu.dcache.ReadReq_hits::.cpu.data     40677090                       # number of ReadReq hits
system.cpu.dcache.ReadReq_hits::total        40677090                       # number of ReadReq hits
system.cpu.dcache.ReadReq_misses::.cpu.data       426454                       # number of ReadReq misses
system.cpu.dcache.ReadReq_misses::total        426454                       # number of ReadReq misses
system.cpu.dcache.ReadReq_miss_latency::.cpu.data   8285853000                       # number of ReadReq miss cycles
system.cpu.dcache.ReadReq_miss_latency::total   8285853000                       # number of ReadReq miss cycles
system.cpu.dcache.ReadReq_accesses::.cpu.data     41103544                       # number of ReadReq accesses(hits+misses)
system.cpu.dcache.ReadReq_accesses::total     41103544                       # number of ReadReq accesses(hits+misses)
system.cpu.dcache.ReadReq_miss_rate::.cpu.data     0.010375                       # miss rate for ReadReq accesses
system.cpu.dcache.ReadReq_miss_rate::total     0.010375                       # miss rate for ReadReq accesses
system.cpu.dcache.ReadReq_avg_miss_latency::.cpu.data 19429.652436                       # average ReadReq miss latency
system.cpu.dcache.ReadReq_avg_miss_latency::total 19429.652436                       # average ReadReq miss latency
system.cpu.dcache.ReadReq_mshr_hits::.cpu.data         2618                       # number of ReadReq MSHR hits
system.cpu.dcache.ReadReq_mshr_hits::total         2618                       # number of ReadReq MSHR hits
system.cpu.dcache.ReadReq_mshr_misses::.cpu.data       423836                       # number of ReadReq MSHR misses
system.cpu.dcache.ReadReq_mshr_misses::total       423836                       # number of ReadReq MSHR misses
system.cpu.dcache.ReadReq_mshr_miss_latency::.cpu.data   7717337000                       # number of ReadReq MSHR miss cycles
system.cpu.dcache.ReadReq_mshr_miss_latency::total   7717337000                       # number of ReadReq MSHR miss cycles
system.cpu.dcache.ReadReq_mshr_miss_rate::.cpu.data     0.010311                       # mshr miss rate for ReadReq accesses
system.cpu.dcache.ReadReq_mshr_miss_rate::total     0.010311                       # mshr miss rate for ReadReq accesses
system.cpu.dcache.ReadReq_avg_mshr_miss_latency::.cpu.data 18208.309346                       # average ReadReq mshr miss latency
system.cpu.dcache.ReadReq_avg_mshr_miss_latency::total 18208.309346                       # average ReadReq mshr miss latency
system.cpu.dcache.WriteReq_hits::.cpu.data     10578173                       # number of WriteReq hits
system.cpu.dcache.WriteReq_hits::total       10578173                       # number of WriteReq hits
system.cpu.dcache.WriteReq_misses::.cpu.data       371906                       # number of WriteReq misses
system.cpu.dcache.WriteReq_misses::total       371906                       # number of WriteReq misses
system.cpu.dcache.WriteReq_miss_latency::.cpu.data  13726573000                       # number of WriteReq miss cycles
system.cpu.dcache.WriteReq_miss_latency::total  13726573000                       # number of WriteReq miss cycles
system.cpu.dcache.WriteReq_accesses::.cpu.data     10950079                       # number of WriteReq accesses(hits+misses)
system.cpu.dcache.WriteReq_accesses::total     10950079                       # number of WriteReq accesses(hits+misses)
system.cpu.dcache.WriteReq_miss_rate::.cpu.data     0.033964                       # miss rate for WriteReq accesses
system.cpu.dcache.WriteReq_miss_rate::total     0.033964                       # miss rate for WriteReq accesses
system.cpu.dcache.WriteReq_avg_miss_latency::.cpu.data 36908.716181                       # average WriteReq miss latency
system.cpu.dcache.WriteReq_avg_miss_latency::total 36908.716181                       # average WriteReq miss latency
system.cpu.dcache.WriteReq_mshr_hits::.cpu.data        32793                       # number of WriteReq MSHR hits
system.cpu.dcache.WriteReq_mshr_hits::total        32793                       # number of WriteReq MSHR hits
system.cpu.dcache.WriteReq_mshr_misses::.cpu.data       339113                       # number of WriteReq MSHR misses
system.cpu.dcache.WriteReq_mshr_misses::total       339113                       # number of WriteReq MSHR misses
system.cpu.dcache.WriteReq_mshr_miss_latency::.cpu.data  11104703500                       # number of WriteReq MSHR miss cycles
system.cpu.dcache.WriteReq_mshr_miss_latency::total  11104703500                       # number of WriteReq MSHR miss cycles
system.cpu.dcache.WriteReq_mshr_miss_rate::.cpu.data     0.030969                       # mshr miss rate for WriteReq accesses
system.cpu.dcache.WriteReq_mshr_miss_rate::total     0.030969                       # mshr miss rate for WriteReq accesses
system.cpu.dcache.WriteReq_avg_mshr_miss_latency::.cpu.data 32746.322022                       # average WriteReq mshr miss latency
system.cpu.dcache.WriteReq_avg_mshr_miss_latency::total 32746.322022                       # average WriteReq mshr miss latency
system.cpu.dcache.SoftPFReq_hits::.cpu.data          566                       # number of SoftPFReq hits
system.cpu.dcache.SoftPFReq_hits::total           566                       # number of SoftPFReq hits
system.cpu.dcache.SoftPFReq_misses::.cpu.data         7853                       # number of SoftPFReq misses
system.cpu.dcache.SoftPFReq_misses::total         7853                       # number of SoftPFReq misses
system.cpu.dcache.SoftPFReq_accesses::.cpu.data         8419                       # number of SoftPFReq accesses(hits+misses)
system.cpu.dcache.SoftPFReq_accesses::total         8419                       # number of SoftPFReq accesses(hits+misses)
system.cpu.dcache.SoftPFReq_miss_rate::.cpu.data     0.932771                       # miss rate for SoftPFReq accesses
system.cpu.dcache.SoftPFReq_miss_rate::total     0.932771                       # miss rate for SoftPFReq accesses
system.cpu.dcache.SoftPFReq_mshr_misses::.cpu.data         3955                       # number of SoftPFReq MSHR misses
system.cpu.dcache.SoftPFReq_mshr_misses::total         3955                       # number of SoftPFReq MSHR misses
system.cpu.dcache.SoftPFReq_mshr_miss_latency::.cpu.data    333949500                       # number of SoftPFReq MSHR miss cycles
system.cpu.dcache.SoftPFReq_mshr_miss_latency::total    333949500                       # number of SoftPFReq MSHR miss cycles
system.cpu.dcache.SoftPFReq_mshr_miss_rate::.cpu.data     0.469771                       # mshr miss rate for SoftPFReq accesses
system.cpu.dcache.SoftPFReq_mshr_miss_rate::total     0.469771                       # mshr miss rate for SoftPFReq accesses
system.cpu.dcache.SoftPFReq_avg_mshr_miss_latency::.cpu.data 84437.294564                       # average SoftPFReq mshr miss latency
system.cpu.dcache.SoftPFReq_avg_mshr_miss_latency::total 84437.294564                       # average SoftPFReq mshr miss latency
system.cpu.dcache.LoadLockedReq_hits::.cpu.data           38                       # number of LoadLockedReq hits
system.cpu.dcache.LoadLockedReq_hits::total           38                       # number of LoadLockedReq hits
system.cpu.dcache.LoadLockedReq_accesses::.cpu.data           38                       # number of LoadLockedReq accesses(hits+misses)
system.cpu.dcache.LoadLockedReq_accesses::total           38                       # number of LoadLockedReq accesses(hits+misses)
system.cpu.dcache.StoreCondReq_hits::.cpu.data           38                       # number of StoreCondReq hits
system.cpu.dcache.StoreCondReq_hits::total           38                       # number of StoreCondReq hits
system.cpu.dcache.StoreCondReq_accesses::.cpu.data           38                       # number of StoreCondReq accesses(hits+misses)
system.cpu.dcache.StoreCondReq_accesses::total           38                       # number of StoreCondReq accesses(hits+misses)
system.cpu.dcache.tags.pwrStateResidencyTicks::UNDEFINED  83459841500                       # Cumulative time (in ticks) in various power states
system.cpu.dcache.tags.tagsinuse           253.322005                       # Cycle average of tags in use
system.cpu.dcache.tags.total_refs            52022808                       # Total number of references to valid blocks.
system.cpu.dcache.tags.sampled_refs            766903                       # Sample count of references to valid blocks.
system.cpu.dcache.tags.avg_refs             67.834926                       # Average number of references to valid blocks.
system.cpu.dcache.tags.warmup_cycle            186500                       # Cycle when the warmup percentage was hit.
system.cpu.dcache.tags.occ_blocks::.cpu.data   253.322005                       # Average occupied blocks per requestor
system.cpu.dcache.tags.occ_percent::.cpu.data     0.989539                       # Average percentage of cache occupancy
system.cpu.dcache.tags.occ_percent::total     0.989539                       # Average percentage of cache occupancy
system.cpu.dcache.tags.occ_task_id_blocks::1024          256                       # Occupied blocks per task id
system.cpu.dcache.tags.age_task_id_blocks_1024::0          219                       # Occupied blocks per task id
system.cpu.dcache.tags.age_task_id_blocks_1024::1           35                       # Occupied blocks per task id
system.cpu.dcache.tags.age_task_id_blocks_1024::2            1                       # Occupied blocks per task id
system.cpu.dcache.tags.age_task_id_blocks_1024::4            1                       # Occupied blocks per task id
system.cpu.dcache.tags.occ_task_id_percent::1024            1                       # Percentage of cache occupancy per task id
system.cpu.dcache.tags.tag_accesses         833760791                       # Number of tag accesses
system.cpu.dcache.tags.data_accesses        833760791                       # Number of data accesses
system.cpu.itb.walker.pwrStateResidencyTicks::UNDEFINED  83459841500                       # Cumulative time (in ticks) in various power states
system.cpu.itb.stage2_mmu.stage2_tlb.walker.pwrStateResidencyTicks::UNDEFINED  83459841500                       # Cumulative time (in ticks) in various power states

---------- End Simulation Statistics   ----------
