
---------- Begin Simulation Statistics ----------
final_tick                                  212989000                       # Number of ticks from beginning of simulation (restored from checkpoints and never reset)
host_inst_rate                                1051561                       # Simulator instruction rate (inst/s)
host_mem_usage                                 674264                       # Number of bytes of host memory used
host_op_rate                                  1056885                       # Simulator op (including micro ops) rate (op/s)
host_seconds                                     0.23                       # Real time elapsed on the host
host_tick_rate                              936746431                       # Simulator tick rate (ticks/s)
sim_freq                                 1000000000000                       # Frequency of simulated ticks
sim_insts                                      238996                       # Number of instructions simulated
sim_ops                                        240289                       # Number of ops (including micro ops) simulated
sim_seconds                                  0.000213                       # Number of seconds simulated
sim_ticks                                   212989000                       # Number of ticks simulated
system.cpu.Branches                             11796                       # Number of branches fetched
system.cpu.committedInsts                      238996                       # Number of instructions committed
system.cpu.committedOps                        240289                       # Number of ops (including micro ops) committed
system.cpu.dtb.accesses                             0                       # DTB accesses
system.cpu.dtb.align_faults                         0                       # Number of TLB faults due to alignment restrictions
system.cpu.dtb.domain_faults                        0                       # Number of TLB faults due to domain restrictions
system.cpu.dtb.flush_entries                        0                       # Number of entries that have been flushed from TLB
system.cpu.dtb.flush_tlb                            0                       # Number of times complete TLB was flushed
system.cpu.dtb.flush_tlb_asid                       0                       # Number of times TLB was flushed by ASID
system.cpu.dtb.flush_tlb_mva                        0                       # Number of times TLB was flushed by MVA
system.cpu.dtb.flush_tlb_mva_asid                   0                       # Number of times TLB was flushed by MVA & ASID
system.cpu.dtb.hits                                 0                       # DTB hits
system.cpu.dtb.inst_accesses                        0                       # ITB inst accesses
system.cpu.dtb.inst_hits                            0                       # ITB inst hits
system.cpu.dtb.inst_misses                          0                       # ITB inst misses
system.cpu.dtb.misses                               0                       # DTB misses
system.cpu.dtb.perms_faults                         0                       # Number of TLB faults due to permissions restrictions
system.cpu.dtb.prefetch_faults                      0                       # Number of TLB faults due to prefetch
system.cpu.dtb.read_accesses                        0                       # DTB read accesses
system.cpu.dtb.read_hits                            0                       # DTB read hits
system.cpu.dtb.read_misses                          0                       # DTB read misses
system.cpu.dtb.stage2_mmu.stage2_tlb.accesses            0                       # DTB accesses
system.cpu.dtb.stage2_mmu.stage2_tlb.align_faults            0                       # Number of TLB faults due to alignment restrictions
system.cpu.dtb.stage2_mmu.stage2_tlb.domain_faults            0                       # Number of TLB faults due to domain restrictions
system.cpu.dtb.stage2_mmu.stage2_tlb.flush_entries            0                       # Number of entries that have been flushed from TLB
system.cpu.dtb.stage2_mmu.stage2_tlb.flush_tlb            0                       # Number of times complete TLB was flushed
system.cpu.dtb.stage2_mmu.stage2_tlb.flush_tlb_asid            0                       # Number of times TLB was flushed by ASID
system.cpu.dtb.stage2_mmu.stage2_tlb.flush_tlb_mva            0                       # Number of times TLB was flushed by MVA
system.cpu.dtb.stage2_mmu.stage2_tlb.flush_tlb_mva_asid            0                       # Number of times TLB was flushed by MVA & ASID
system.cpu.dtb.stage2_mmu.stage2_tlb.hits            0                       # DTB hits
system.cpu.dtb.stage2_mmu.stage2_tlb.inst_accesses            0                       # ITB inst accesses
system.cpu.dtb.stage2_mmu.stage2_tlb.inst_hits            0                       # ITB inst hits
system.cpu.dtb.stage2_mmu.stage2_tlb.inst_misses            0                       # ITB inst misses
system.cpu.dtb.stage2_mmu.stage2_tlb.misses            0                       # DTB misses
system.cpu.dtb.stage2_mmu.stage2_tlb.perms_faults            0                       # Number of TLB faults due to permissions restrictions
system.cpu.dtb.stage2_mmu.stage2_tlb.prefetch_faults            0                       # Number of TLB faults due to prefetch
system.cpu.dtb.stage2_mmu.stage2_tlb.read_accesses            0                       # DTB read accesses
system.cpu.dtb.stage2_mmu.stage2_tlb.read_hits            0                       # DTB read hits
system.cpu.dtb.stage2_mmu.stage2_tlb.read_misses            0                       # DTB read misses
system.cpu.dtb.stage2_mmu.stage2_tlb.walker.walkRequestOrigin_Requested::Data            0                       # Table walker requests started/completed, data/inst
system.cpu.dtb.stage2_mmu.stage2_tlb.walker.walkRequestOrigin_Requested::Inst            0                       # Table walker requests started/completed, data/inst
system.cpu.dtb.stage2_mmu.stage2_tlb.walker.walkRequestOrigin_Requested::total            0                       # Table walker requests started/completed, data/inst
system.cpu.dtb.stage2_mmu.stage2_tlb.walker.walkRequestOrigin_Completed::Data            0                       # Table walker requests started/completed, data/inst
system.cpu.dtb.stage2_mmu.stage2_tlb.walker.walkRequestOrigin_Completed::Inst            0                       # Table walker requests started/completed, data/inst
system.cpu.dtb.stage2_mmu.stage2_tlb.walker.walkRequestOrigin_Completed::total            0                       # Table walker requests started/completed, data/inst
system.cpu.dtb.stage2_mmu.stage2_tlb.walker.walkRequestOrigin::total            0                       # Table walker requests started/completed, data/inst
system.cpu.dtb.stage2_mmu.stage2_tlb.walker.walks            0                       # Table walker walks requested
system.cpu.dtb.stage2_mmu.stage2_tlb.write_accesses            0                       # DTB write accesses
system.cpu.dtb.stage2_mmu.stage2_tlb.write_hits            0                       # DTB write hits
system.cpu.dtb.stage2_mmu.stage2_tlb.write_misses            0                       # DTB write misses
system.cpu.dtb.walker.walkRequestOrigin_Requested::Data            0                       # Table walker requests started/completed, data/inst
system.cpu.dtb.walker.walkRequestOrigin_Requested::Inst            0                       # Table walker requests started/completed, data/inst
system.cpu.dtb.walker.walkRequestOrigin_Requested::total            0                       # Table walker requests started/completed, data/inst
system.cpu.dtb.walker.walkRequestOrigin_Completed::Data            0                       # Table walker requests started/completed, data/inst
system.cpu.dtb.walker.walkRequestOrigin_Completed::Inst            0                       # Table walker requests started/completed, data/inst
system.cpu.dtb.walker.walkRequestOrigin_Completed::total            0                       # Table walker requests started/completed, data/inst
system.cpu.dtb.walker.walkRequestOrigin::total            0                       # Table walker requests started/completed, data/inst
system.cpu.dtb.walker.walks                         0                       # Table walker walks requested
system.cpu.dtb.write_accesses                       0                       # DTB write accesses
system.cpu.dtb.write_hits                           0                       # DTB write hits
system.cpu.dtb.write_misses                         0                       # DTB write misses
system.cpu.idle_fraction                     0.000000                       # Percentage of idle cycles
system.cpu.itb.accesses                             0                       # DTB accesses
system.cpu.itb.align_faults                         0                       # Number of TLB faults due to alignment restrictions
system.cpu.itb.domain_faults                        0                       # Number of TLB faults due to domain restrictions
system.cpu.itb.flush_entries                        0                       # Number of entries that have been flushed from TLB
system.cpu.itb.flush_tlb                            0                       # Number of times complete TLB was flushed
system.cpu.itb.flush_tlb_asid                       0                       # Number of times TLB was flushed by ASID
system.cpu.itb.flush_tlb_mva                        0                       # Number of times TLB was flushed by MVA
system.cpu.itb.flush_tlb_mva_asid                   0                       # Number of times TLB was flushed by MVA & ASID
system.cpu.itb.hits                                 0                       # DTB hits
system.cpu.itb.inst_accesses                        0                       # ITB inst accesses
system.cpu.itb.inst_hits                            0                       # ITB inst hits
system.cpu.itb.inst_misses                          0                       # ITB inst misses
system.cpu.itb.misses                               0                       # DTB misses
system.cpu.itb.perms_faults                         0                       # Number of TLB faults due to permissions restrictions
system.cpu.itb.prefetch_faults                      0                       # Number of TLB faults due to prefetch
system.cpu.itb.read_accesses                        0                       # DTB read accesses
system.cpu.itb.read_hits                            0                       # DTB read hits
system.cpu.itb.read_misses                          0                       # DTB read misses
system.cpu.itb.stage2_mmu.stage2_tlb.accesses            0                       # DTB accesses
system.cpu.itb.stage2_mmu.stage2_tlb.align_faults            0                       # Number of TLB faults due to alignment restrictions
system.cpu.itb.stage2_mmu.stage2_tlb.domain_faults            0                       # Number of TLB faults due to domain restrictions
system.cpu.itb.stage2_mmu.stage2_tlb.flush_entries            0                       # Number of entries that have been flushed from TLB
system.cpu.itb.stage2_mmu.stage2_tlb.flush_tlb            0                       # Number of times complete TLB was flushed
system.cpu.itb.stage2_mmu.stage2_tlb.flush_tlb_asid            0                       # Number of times TLB was flushed by ASID
system.cpu.itb.stage2_mmu.stage2_tlb.flush_tlb_mva            0                       # Number of times TLB was flushed by MVA
system.cpu.itb.stage2_mmu.stage2_tlb.flush_tlb_mva_asid            0                       # Number of times TLB was flushed by MVA & ASID
system.cpu.itb.stage2_mmu.stage2_tlb.hits            0                       # DTB hits
system.cpu.itb.stage2_mmu.stage2_tlb.inst_accesses            0                       # ITB inst accesses
system.cpu.itb.stage2_mmu.stage2_tlb.inst_hits            0                       # ITB inst hits
system.cpu.itb.stage2_mmu.stage2_tlb.inst_misses            0                       # ITB inst misses
system.cpu.itb.stage2_mmu.stage2_tlb.misses            0                       # DTB misses
system.cpu.itb.stage2_mmu.stage2_tlb.perms_faults            0                       # Number of TLB faults due to permissions restrictions
system.cpu.itb.stage2_mmu.stage2_tlb.prefetch_faults            0                       # Number of TLB faults due to prefetch
system.cpu.itb.stage2_mmu.stage2_tlb.read_accesses            0                       # DTB read accesses
system.cpu.itb.stage2_mmu.stage2_tlb.read_hits            0                       # DTB read hits
system.cpu.itb.stage2_mmu.stage2_tlb.read_misses            0                       # DTB read misses
system.cpu.itb.stage2_mmu.stage2_tlb.walker.walkRequestOrigin_Requested::Data            0                       # Table walker requests started/completed, data/inst
system.cpu.itb.stage2_mmu.stage2_tlb.walker.walkRequestOrigin_Requested::Inst            0                       # Table walker requests started/completed, data/inst
system.cpu.itb.stage2_mmu.stage2_tlb.walker.walkRequestOrigin_Requested::total            0                       # Table walker requests started/completed, data/inst
system.cpu.itb.stage2_mmu.stage2_tlb.walker.walkRequestOrigin_Completed::Data            0                       # Table walker requests started/completed, data/inst
system.cpu.itb.stage2_mmu.stage2_tlb.walker.walkRequestOrigin_Completed::Inst            0                       # Table walker requests started/completed, data/inst
system.cpu.itb.stage2_mmu.stage2_tlb.walker.walkRequestOrigin_Completed::total            0                       # Table walker requests started/completed, data/inst
system.cpu.itb.stage2_mmu.stage2_tlb.walker.walkRequestOrigin::total            0                       # Table walker requests started/completed, data/inst
system.cpu.itb.stage2_mmu.stage2_tlb.walker.walks            0                       # Table walker walks requested
system.cpu.itb.stage2_mmu.stage2_tlb.write_accesses            0                       # DTB write accesses
system.cpu.itb.stage2_mmu.stage2_tlb.write_hits            0                       # DTB write hits
system.cpu.itb.stage2_mmu.stage2_tlb.write_misses            0                       # DTB write misses
system.cpu.itb.walker.walkRequestOrigin_Requested::Data            0                       # Table walker requests started/completed, data/inst
system.cpu.itb.walker.walkRequestOrigin_Requested::Inst            0                       # Table walker requests started/completed, data/inst
system.cpu.itb.walker.walkRequestOrigin_Requested::total            0                       # Table walker requests started/completed, data/inst
system.cpu.itb.walker.walkRequestOrigin_Completed::Data            0                       # Table walker requests started/completed, data/inst
system.cpu.itb.walker.walkRequestOrigin_Completed::Inst            0                       # Table walker requests started/completed, data/inst
system.cpu.itb.walker.walkRequestOrigin_Completed::total            0                       # Table walker requests started/completed, data/inst
system.cpu.itb.walker.walkRequestOrigin::total            0                       # Table walker requests started/completed, data/inst
system.cpu.itb.walker.walks                         0                       # Table walker walks requested
system.cpu.itb.write_accesses                       0                       # DTB write accesses
system.cpu.itb.write_hits                           0                       # DTB write hits
system.cpu.itb.write_misses                         0                       # DTB write misses
system.cpu.not_idle_fraction                 1.000000                       # Percentage of non-idle cycles
system.cpu.numCycles                           851956                       # number of cpu cycles simulated
system.cpu.numWorkItemsCompleted                    0                       # number of work items this cpu completed
system.cpu.numWorkItemsStarted                      0                       # number of work items this cpu started
system.cpu.num_busy_cycles               851955.996000                       # Number of busy cycles
system.cpu.num_cc_register_reads              1025037                       # number of times the CC registers were read
system.cpu.num_cc_register_writes               65986                       # number of times the CC registers were written
system.cpu.num_conditional_control_insts        11294                       # number of instructions that are conditional controls
system.cpu.num_fp_alu_accesses                      0                       # Number of float alu accesses
system.cpu.num_fp_insts                             0                       # number of float instructions
system.cpu.num_fp_register_reads                    0                       # number of times the floating registers were read
system.cpu.num_fp_register_writes                   0                       # number of times the floating registers were written
system.cpu.num_func_calls                         331                       # number of times a function call or return occured
system.cpu.num_idle_cycles                   0.004000                       # Number of idle cycles
system.cpu.num_int_alu_accesses                228980                       # Number of integer alu accesses
system.cpu.num_int_insts                       228980                       # number of integer instructions
system.cpu.num_int_register_reads              324636                       # number of times the integer registers were read
system.cpu.num_int_register_writes             196130                       # number of times the integer registers were written
system.cpu.num_load_insts                      101459                       # Number of load instructions
system.cpu.num_mem_refs                        123062                       # number of memory refs
system.cpu.num_store_insts                      21603                       # Number of store instructions
system.cpu.num_vec_alu_accesses                     0                       # Number of vector alu accesses
system.cpu.num_vec_insts                            0                       # number of vector instructions
system.cpu.num_vec_register_reads                  42                       # number of times the vector registers were read
system.cpu.num_vec_register_writes                 15                       # number of times the vector registers were written
system.cpu.op_class::No_OpClass                     0      0.00%      0.00% # Class of executed instruction
system.cpu.op_class::IntAlu                    117251     48.77%     48.77% # Class of executed instruction
system.cpu.op_class::IntMult                       62      0.03%     48.80% # Class of executed instruction
system.cpu.op_class::IntDiv                         0      0.00%     48.80% # Class of executed instruction
system.cpu.op_class::FloatAdd                       0      0.00%     48.80% # Class of executed instruction
system.cpu.op_class::FloatCmp                       0      0.00%     48.80% # Class of executed instruction
system.cpu.op_class::FloatCvt                       0      0.00%     48.80% # Class of executed instruction
system.cpu.op_class::FloatMult                      0      0.00%     48.80% # Class of executed instruction
system.cpu.op_class::FloatMultAcc                   0      0.00%     48.80% # Class of executed instruction
system.cpu.op_class::FloatDiv                       0      0.00%     48.80% # Class of executed instruction
system.cpu.op_class::FloatMisc                      0      0.00%     48.80% # Class of executed instruction
system.cpu.op_class::FloatSqrt                      0      0.00%     48.80% # Class of executed instruction
system.cpu.op_class::SimdAdd                        0      0.00%     48.80% # Class of executed instruction
system.cpu.op_class::SimdAddAcc                     0      0.00%     48.80% # Class of executed instruction
system.cpu.op_class::SimdAlu                        0      0.00%     48.80% # Class of executed instruction
system.cpu.op_class::SimdCmp                        0      0.00%     48.80% # Class of executed instruction
system.cpu.op_class::SimdCvt                        0      0.00%     48.80% # Class of executed instruction
system.cpu.op_class::SimdMisc                       0      0.00%     48.80% # Class of executed instruction
system.cpu.op_class::SimdMult                       0      0.00%     48.80% # Class of executed instruction
system.cpu.op_class::SimdMultAcc                    0      0.00%     48.80% # Class of executed instruction
system.cpu.op_class::SimdShift                      0      0.00%     48.80% # Class of executed instruction
system.cpu.op_class::SimdShiftAcc                   0      0.00%     48.80% # Class of executed instruction
system.cpu.op_class::SimdDiv                        0      0.00%     48.80% # Class of executed instruction
system.cpu.op_class::SimdSqrt                       0      0.00%     48.80% # Class of executed instruction
system.cpu.op_class::SimdFloatAdd                   0      0.00%     48.80% # Class of executed instruction
system.cpu.op_class::SimdFloatAlu                   0      0.00%     48.80% # Class of executed instruction
system.cpu.op_class::SimdFloatCmp                   0      0.00%     48.80% # Class of executed instruction
system.cpu.op_class::SimdFloatCvt                   0      0.00%     48.80% # Class of executed instruction
system.cpu.op_class::SimdFloatDiv                   0      0.00%     48.80% # Class of executed instruction
system.cpu.op_class::SimdFloatMisc                 21      0.01%     48.81% # Class of executed instruction
system.cpu.op_class::SimdFloatMult                  0      0.00%     48.81% # Class of executed instruction
system.cpu.op_class::SimdFloatMultAcc               0      0.00%     48.81% # Class of executed instruction
system.cpu.op_class::SimdFloatSqrt                  0      0.00%     48.81% # Class of executed instruction
system.cpu.op_class::SimdReduceAdd                  0      0.00%     48.81% # Class of executed instruction
system.cpu.op_class::SimdReduceAlu                  0      0.00%     48.81% # Class of executed instruction
system.cpu.op_class::SimdReduceCmp                  0      0.00%     48.81% # Class of executed instruction
system.cpu.op_class::SimdFloatReduceAdd             0      0.00%     48.81% # Class of executed instruction
system.cpu.op_class::SimdFloatReduceCmp             0      0.00%     48.81% # Class of executed instruction
system.cpu.op_class::SimdAes                        0      0.00%     48.81% # Class of executed instruction
system.cpu.op_class::SimdAesMix                     0      0.00%     48.81% # Class of executed instruction
system.cpu.op_class::SimdSha1Hash                   0      0.00%     48.81% # Class of executed instruction
system.cpu.op_class::SimdSha1Hash2                  0      0.00%     48.81% # Class of executed instruction
system.cpu.op_class::SimdSha256Hash                 0      0.00%     48.81% # Class of executed instruction
system.cpu.op_class::SimdSha256Hash2                0      0.00%     48.81% # Class of executed instruction
system.cpu.op_class::SimdShaSigma2                  0      0.00%     48.81% # Class of executed instruction
system.cpu.op_class::SimdShaSigma3                  0      0.00%     48.81% # Class of executed instruction
system.cpu.op_class::SimdPredAlu                    0      0.00%     48.81% # Class of executed instruction
system.cpu.op_class::MemRead                   101459     42.20%     91.01% # Class of executed instruction
system.cpu.op_class::MemWrite                   21603      8.99%    100.00% # Class of executed instruction
system.cpu.op_class::FloatMemRead                   0      0.00%    100.00% # Class of executed instruction
system.cpu.op_class::FloatMemWrite                  0      0.00%    100.00% # Class of executed instruction
system.cpu.op_class::IprAccess                      0      0.00%    100.00% # Class of executed instruction
system.cpu.op_class::InstPrefetch                   0      0.00%    100.00% # Class of executed instruction
system.cpu.op_class::total                     240396                       # Class of executed instruction
system.cpu.workload.numSyscalls                    10                       # Number of system calls
system.membus.snoop_filter.hit_multi_requests            2                       # Number of requests hitting in the snoop filter with multiple (>1) holders of the requested data.
system.membus.snoop_filter.hit_multi_snoops            0                       # Number of snoops hitting in the snoop filter with multiple (>1) holders of the requested data.
system.membus.snoop_filter.hit_single_requests           47                       # Number of requests hitting in the snoop filter with a single holder of the requested data.
system.membus.snoop_filter.hit_single_snoops            0                       # Number of snoops hitting in the snoop filter with a single holder of the requested data.
system.membus.snoop_filter.tot_requests           487                       # Total number of requests made to the snoop filter.
system.membus.snoop_filter.tot_snoops               0                       # Total number of snoops made to the snoop filter.
system.membus.pwrStateResidencyTicks::UNDEFINED    212989000                       # Cumulative time (in ticks) in various power states
system.membus.trans_dist::ReadResp                382                       # Transaction distribution
system.membus.trans_dist::WritebackClean           33                       # Transaction distribution
system.membus.trans_dist::ReadExReq                72                       # Transaction distribution
system.membus.trans_dist::ReadExResp               72                       # Transaction distribution
system.membus.trans_dist::ReadCleanReq            284                       # Transaction distribution
system.membus.trans_dist::ReadSharedReq            98                       # Transaction distribution
system.membus.pkt_count_system.cpu.icache.mem_side::system.mem_ctrls.port          601                       # Packet count per connected master and slave (bytes)
system.membus.pkt_count_system.cpu.dcache.mem_side::system.mem_ctrls.port          340                       # Packet count per connected master and slave (bytes)
system.membus.pkt_count::total                    941                       # Packet count per connected master and slave (bytes)
system.membus.pkt_size_system.cpu.icache.mem_side::system.mem_ctrls.port        20288                       # Cumulative packet size per connected master and slave (bytes)
system.membus.pkt_size_system.cpu.dcache.mem_side::system.mem_ctrls.port        10880                       # Cumulative packet size per connected master and slave (bytes)
system.membus.pkt_size::total                   31168                       # Cumulative packet size per connected master and slave (bytes)
system.membus.snoops                                0                       # Total snoops (count)
system.membus.snoopTraffic                          0                       # Total snoop traffic (bytes)
system.membus.snoop_fanout::samples               454                       # Request fanout histogram
system.membus.snoop_fanout::mean             0.035242                       # Request fanout histogram
system.membus.snoop_fanout::stdev            0.184595                       # Request fanout histogram
system.membus.snoop_fanout::underflows              0      0.00%      0.00% # Request fanout histogram
system.membus.snoop_fanout::0                     438     96.48%     96.48% # Request fanout histogram
system.membus.snoop_fanout::1                      16      3.52%    100.00% # Request fanout histogram
system.membus.snoop_fanout::2                       0      0.00%    100.00% # Request fanout histogram
system.membus.snoop_fanout::overflows               0      0.00%    100.00% # Request fanout histogram
system.membus.snoop_fanout::min_value               0                       # Request fanout histogram
system.membus.snoop_fanout::max_value               1                       # Request fanout histogram
system.membus.snoop_fanout::total                 454                       # Request fanout histogram
system.membus.reqLayer0.occupancy              756500                       # Layer occupancy (ticks)
system.membus.reqLayer0.utilization               0.4                       # Layer utilization (%)
system.membus.respLayer1.occupancy            1427500                       # Layer occupancy (ticks)
system.membus.respLayer1.utilization              0.7                       # Layer utilization (%)
system.membus.respLayer2.occupancy             853500                       # Layer occupancy (ticks)
system.membus.respLayer2.utilization              0.4                       # Layer utilization (%)
system.voltage_domain.voltage                       1                       # Voltage in Volts
system.clk_domain.clock                          1000                       # Clock period in ticks
system.cpu_voltage_domain.voltage                   1                       # Voltage in Volts
system.mem_ctrls.pwrStateResidencyTicks::UNDEFINED    212989000                       # Cumulative time (in ticks) in various power states
system.mem_ctrls.bytes_read::.cpu.inst          18176                       # Number of bytes read from this memory
system.mem_ctrls.bytes_read::.cpu.data          10880                       # Number of bytes read from this memory
system.mem_ctrls.bytes_read::total              29056                       # Number of bytes read from this memory
system.mem_ctrls.bytes_inst_read::.cpu.inst        18176                       # Number of instructions bytes read from this memory
system.mem_ctrls.bytes_inst_read::total         18176                       # Number of instructions bytes read from this memory
system.mem_ctrls.num_reads::.cpu.inst             284                       # Number of read requests responded to by this memory
system.mem_ctrls.num_reads::.cpu.data             170                       # Number of read requests responded to by this memory
system.mem_ctrls.num_reads::total                 454                       # Number of read requests responded to by this memory
system.mem_ctrls.bw_read::.cpu.inst          85337740                       # Total read bandwidth from this memory (bytes/s)
system.mem_ctrls.bw_read::.cpu.data          51082450                       # Total read bandwidth from this memory (bytes/s)
system.mem_ctrls.bw_read::total             136420191                       # Total read bandwidth from this memory (bytes/s)
system.mem_ctrls.bw_inst_read::.cpu.inst     85337740                       # Instruction read bandwidth from this memory (bytes/s)
system.mem_ctrls.bw_inst_read::total         85337740                       # Instruction read bandwidth from this memory (bytes/s)
system.mem_ctrls.bw_total::.cpu.inst         85337740                       # Total bandwidth to/from this memory (bytes/s)
system.mem_ctrls.bw_total::.cpu.data         51082450                       # Total bandwidth to/from this memory (bytes/s)
system.mem_ctrls.bw_total::total            136420191                       # Total bandwidth to/from this memory (bytes/s)
system.mem_ctrls.avgPriority_.writebacks::samples        62.00                       # Average QoS priority value for accepted requests
system.mem_ctrls.avgPriority_.cpu.inst::samples       564.00                       # Average QoS priority value for accepted requests
system.mem_ctrls.avgPriority_.cpu.data::samples       338.00                       # Average QoS priority value for accepted requests
system.mem_ctrls.priorityMinLatency      0.000000020000                       # per QoS priority minimum request to response latency (s)
system.mem_ctrls.priorityMaxLatency      0.000382062000                       # per QoS priority maximum request to response latency (s)
system.mem_ctrls.numReadWriteTurnArounds            2                       # Number of turnarounds from READ to WRITE
system.mem_ctrls.numWriteReadTurnArounds            2                       # Number of turnarounds from WRITE to READ
system.mem_ctrls.numStayReadState                1435                       # Number of times bus staying in READ state
system.mem_ctrls.numStayWriteState                 30                       # Number of times bus staying in WRITE state
system.mem_ctrls.readReqs                         454                       # Number of read requests accepted
system.mem_ctrls.writeReqs                         31                       # Number of write requests accepted
system.mem_ctrls.readBursts                       908                       # Number of DRAM read bursts, including those serviced by the write queue
system.mem_ctrls.writeBursts                       62                       # Number of DRAM write bursts, including those merged in the write queue
system.mem_ctrls.servicedByWrQ                      6                       # Number of DRAM read bursts serviced by the write queue
system.mem_ctrls.mergedWrBursts                     0                       # Number of DRAM write bursts merged with an existing one
system.mem_ctrls.neitherReadNorWriteReqs            0                       # Number of requests that are neither read nor write
system.mem_ctrls.perBankRdBursts::0               198                       # Per bank write bursts
system.mem_ctrls.perBankRdBursts::1               124                       # Per bank write bursts
system.mem_ctrls.perBankRdBursts::2                60                       # Per bank write bursts
system.mem_ctrls.perBankRdBursts::3               124                       # Per bank write bursts
system.mem_ctrls.perBankRdBursts::4               112                       # Per bank write bursts
system.mem_ctrls.perBankRdBursts::5                52                       # Per bank write bursts
system.mem_ctrls.perBankRdBursts::6                68                       # Per bank write bursts
system.mem_ctrls.perBankRdBursts::7               164                       # Per bank write bursts
system.mem_ctrls.perBankWrBursts::0                20                       # Per bank write bursts
system.mem_ctrls.perBankWrBursts::1                 0                       # Per bank write bursts
system.mem_ctrls.perBankWrBursts::2                 0                       # Per bank write bursts
system.mem_ctrls.perBankWrBursts::3                 0                       # Per bank write bursts
system.mem_ctrls.perBankWrBursts::4                 0                       # Per bank write bursts
system.mem_ctrls.perBankWrBursts::5                 0                       # Per bank write bursts
system.mem_ctrls.perBankWrBursts::6                 0                       # Per bank write bursts
system.mem_ctrls.perBankWrBursts::7                12                       # Per bank write bursts
system.mem_ctrls.avgRdQLen                       2.01                       # Average read queue length when enqueuing
system.mem_ctrls.avgWrQLen                      19.83                       # Average write queue length when enqueuing
system.mem_ctrls.totQLat                     13489000                       # Total ticks spent queuing
system.mem_ctrls.totBusLat                    4510000                       # Total ticks spent in databus transfers
system.mem_ctrls.totMemAccLat                31529000                       # Total ticks spent from burst creation until serviced by the DRAM
system.mem_ctrls.avgQLat                     14954.55                       # Average queueing delay per DRAM burst
system.mem_ctrls.avgBusLat                    5000.00                       # Average bus latency per DRAM burst
system.mem_ctrls.avgMemAccLat                34954.55                       # Average memory access latency per DRAM burst
system.mem_ctrls.numRdRetry                         0                       # Number of times read queue was full causing retry
system.mem_ctrls.numWrRetry                         0                       # Number of times write queue was full causing retry
system.mem_ctrls.readRowHits                      738                       # Number of row buffer hits during reads
system.mem_ctrls.writeRowHits                      29                       # Number of row buffer hits during writes
system.mem_ctrls.readRowHitRate                 81.82                       # Row buffer hit rate for reads
system.mem_ctrls.writeRowHitRate                46.77                       # Row buffer hit rate for writes
system.mem_ctrls.readPktSize::0                     0                       # Read request sizes (log2)
system.mem_ctrls.readPktSize::1                     0                       # Read request sizes (log2)
system.mem_ctrls.readPktSize::2                     0                       # Read request sizes (log2)
system.mem_ctrls.readPktSize::3                     0                       # Read request sizes (log2)
system.mem_ctrls.readPktSize::4                     0                       # Read request sizes (log2)
system.mem_ctrls.readPktSize::5                   908                       # Read request sizes (log2)
system.mem_ctrls.writePktSize::0                    0                       # Write request sizes (log2)
system.mem_ctrls.writePktSize::1                    0                       # Write request sizes (log2)
system.mem_ctrls.writePktSize::2                    0                       # Write request sizes (log2)
system.mem_ctrls.writePktSize::3                    0                       # Write request sizes (log2)
system.mem_ctrls.writePktSize::4                    0                       # Write request sizes (log2)
system.mem_ctrls.writePktSize::5                   62                       # Write request sizes (log2)
system.mem_ctrls.rdQLenPdf::0                     446                       # What read queue length does an incoming req see
system.mem_ctrls.rdQLenPdf::1                     446                       # What read queue length does an incoming req see
system.mem_ctrls.rdQLenPdf::2                       5                       # What read queue length does an incoming req see
system.mem_ctrls.rdQLenPdf::3                       5                       # What read queue length does an incoming req see
system.mem_ctrls.rdQLenPdf::4                       0                       # What read queue length does an incoming req see
system.mem_ctrls.rdQLenPdf::5                       0                       # What read queue length does an incoming req see
system.mem_ctrls.rdQLenPdf::6                       0                       # What read queue length does an incoming req see
system.mem_ctrls.rdQLenPdf::7                       0                       # What read queue length does an incoming req see
system.mem_ctrls.rdQLenPdf::8                       0                       # What read queue length does an incoming req see
system.mem_ctrls.rdQLenPdf::9                       0                       # What read queue length does an incoming req see
system.mem_ctrls.rdQLenPdf::10                      0                       # What read queue length does an incoming req see
system.mem_ctrls.rdQLenPdf::11                      0                       # What read queue length does an incoming req see
system.mem_ctrls.rdQLenPdf::12                      0                       # What read queue length does an incoming req see
system.mem_ctrls.rdQLenPdf::13                      0                       # What read queue length does an incoming req see
system.mem_ctrls.rdQLenPdf::14                      0                       # What read queue length does an incoming req see
system.mem_ctrls.rdQLenPdf::15                      0                       # What read queue length does an incoming req see
system.mem_ctrls.rdQLenPdf::16                      0                       # What read queue length does an incoming req see
system.mem_ctrls.rdQLenPdf::17                      0                       # What read queue length does an incoming req see
system.mem_ctrls.rdQLenPdf::18                      0                       # What read queue length does an incoming req see
system.mem_ctrls.rdQLenPdf::19                      0                       # What read queue length does an incoming req see
system.mem_ctrls.rdQLenPdf::20                      0                       # What read queue length does an incoming req see
system.mem_ctrls.rdQLenPdf::21                      0                       # What read queue length does an incoming req see
system.mem_ctrls.rdQLenPdf::22                      0                       # What read queue length does an incoming req see
system.mem_ctrls.rdQLenPdf::23                      0                       # What read queue length does an incoming req see
system.mem_ctrls.rdQLenPdf::24                      0                       # What read queue length does an incoming req see
system.mem_ctrls.rdQLenPdf::25                      0                       # What read queue length does an incoming req see
system.mem_ctrls.rdQLenPdf::26                      0                       # What read queue length does an incoming req see
system.mem_ctrls.rdQLenPdf::27                      0                       # What read queue length does an incoming req see
system.mem_ctrls.rdQLenPdf::28                      0                       # What read queue length does an incoming req see
system.mem_ctrls.rdQLenPdf::29                      0                       # What read queue length does an incoming req see
system.mem_ctrls.rdQLenPdf::30                      0                       # What read queue length does an incoming req see
system.mem_ctrls.rdQLenPdf::31                      0                       # What read queue length does an incoming req see
system.mem_ctrls.wrQLenPdf::0                       1                       # What write queue length does an incoming req see
system.mem_ctrls.wrQLenPdf::1                       1                       # What write queue length does an incoming req see
system.mem_ctrls.wrQLenPdf::2                       1                       # What write queue length does an incoming req see
system.mem_ctrls.wrQLenPdf::3                       1                       # What write queue length does an incoming req see
system.mem_ctrls.wrQLenPdf::4                       1                       # What write queue length does an incoming req see
system.mem_ctrls.wrQLenPdf::5                       1                       # What write queue length does an incoming req see
system.mem_ctrls.wrQLenPdf::6                       1                       # What write queue length does an incoming req see
system.mem_ctrls.wrQLenPdf::7                       1                       # What write queue length does an incoming req see
system.mem_ctrls.wrQLenPdf::8                       1                       # What write queue length does an incoming req see
system.mem_ctrls.wrQLenPdf::9                       1                       # What write queue length does an incoming req see
system.mem_ctrls.wrQLenPdf::10                      1                       # What write queue length does an incoming req see
system.mem_ctrls.wrQLenPdf::11                      1                       # What write queue length does an incoming req see
system.mem_ctrls.wrQLenPdf::12                      1                       # What write queue length does an incoming req see
system.mem_ctrls.wrQLenPdf::13                      1                       # What write queue length does an incoming req see
system.mem_ctrls.wrQLenPdf::14                      1                       # What write queue length does an incoming req see
system.mem_ctrls.wrQLenPdf::15                      1                       # What write queue length does an incoming req see
system.mem_ctrls.wrQLenPdf::16                      1                       # What write queue length does an incoming req see
system.mem_ctrls.wrQLenPdf::17                      1                       # What write queue length does an incoming req see
system.mem_ctrls.wrQLenPdf::18                      3                       # What write queue length does an incoming req see
system.mem_ctrls.wrQLenPdf::19                      3                       # What write queue length does an incoming req see
system.mem_ctrls.wrQLenPdf::20                      3                       # What write queue length does an incoming req see
system.mem_ctrls.wrQLenPdf::21                      3                       # What write queue length does an incoming req see
system.mem_ctrls.wrQLenPdf::22                      3                       # What write queue length does an incoming req see
system.mem_ctrls.wrQLenPdf::23                      3                       # What write queue length does an incoming req see
system.mem_ctrls.wrQLenPdf::24                      3                       # What write queue length does an incoming req see
system.mem_ctrls.wrQLenPdf::25                      3                       # What write queue length does an incoming req see
system.mem_ctrls.wrQLenPdf::26                      3                       # What write queue length does an incoming req see
system.mem_ctrls.wrQLenPdf::27                      3                       # What write queue length does an incoming req see
system.mem_ctrls.wrQLenPdf::28                      3                       # What write queue length does an incoming req see
system.mem_ctrls.wrQLenPdf::29                      3                       # What write queue length does an incoming req see
system.mem_ctrls.wrQLenPdf::30                      2                       # What write queue length does an incoming req see
system.mem_ctrls.wrQLenPdf::31                      2                       # What write queue length does an incoming req see
system.mem_ctrls.wrQLenPdf::32                      2                       # What write queue length does an incoming req see
system.mem_ctrls.wrQLenPdf::33                      2                       # What write queue length does an incoming req see
system.mem_ctrls.wrQLenPdf::34                      0                       # What write queue length does an incoming req see
system.mem_ctrls.wrQLenPdf::35                      0                       # What write queue length does an incoming req see
system.mem_ctrls.wrQLenPdf::36                      0                       # What write queue length does an incoming req see
system.mem_ctrls.wrQLenPdf::37                      0                       # What write queue length does an incoming req see
system.mem_ctrls.wrQLenPdf::38                      0                       # What write queue length does an incoming req see
system.mem_ctrls.wrQLenPdf::39                      0                       # What write queue length does an incoming req see
system.mem_ctrls.wrQLenPdf::40                      0                       # What write queue length does an incoming req see
system.mem_ctrls.wrQLenPdf::41                      0                       # What write queue length does an incoming req see
system.mem_ctrls.wrQLenPdf::42                      0                       # What write queue length does an incoming req see
system.mem_ctrls.wrQLenPdf::43                      0                       # What write queue length does an incoming req see
system.mem_ctrls.wrQLenPdf::44                      0                       # What write queue length does an incoming req see
system.mem_ctrls.wrQLenPdf::45                      0                       # What write queue length does an incoming req see
system.mem_ctrls.wrQLenPdf::46                      0                       # What write queue length does an incoming req see
system.mem_ctrls.wrQLenPdf::47                      0                       # What write queue length does an incoming req see
system.mem_ctrls.wrQLenPdf::48                      0                       # What write queue length does an incoming req see
system.mem_ctrls.wrQLenPdf::49                      0                       # What write queue length does an incoming req see
system.mem_ctrls.wrQLenPdf::50                      0                       # What write queue length does an incoming req see
system.mem_ctrls.wrQLenPdf::51                      0                       # What write queue length does an incoming req see
system.mem_ctrls.wrQLenPdf::52                      0                       # What write queue length does an incoming req see
system.mem_ctrls.wrQLenPdf::53                      0                       # What write queue length does an incoming req see
system.mem_ctrls.wrQLenPdf::54                      0                       # What write queue length does an incoming req see
system.mem_ctrls.wrQLenPdf::55                      0                       # What write queue length does an incoming req see
system.mem_ctrls.wrQLenPdf::56                      0                       # What write queue length does an incoming req see
system.mem_ctrls.wrQLenPdf::57                      0                       # What write queue length does an incoming req see
system.mem_ctrls.wrQLenPdf::58                      0                       # What write queue length does an incoming req see
system.mem_ctrls.wrQLenPdf::59                      0                       # What write queue length does an incoming req see
system.mem_ctrls.wrQLenPdf::60                      0                       # What write queue length does an incoming req see
system.mem_ctrls.wrQLenPdf::61                      0                       # What write queue length does an incoming req see
system.mem_ctrls.wrQLenPdf::62                      0                       # What write queue length does an incoming req see
system.mem_ctrls.wrQLenPdf::63                      0                       # What write queue length does an incoming req see
system.mem_ctrls.bytesPerActivate::samples          160                       # Bytes accessed per row activation
system.mem_ctrls.bytesPerActivate::mean           180                       # Bytes accessed per row activation
system.mem_ctrls.bytesPerActivate::gmean   135.344129                       # Bytes accessed per row activation
system.mem_ctrls.bytesPerActivate::stdev   145.904940                       # Bytes accessed per row activation
system.mem_ctrls.bytesPerActivate::64-127           64     40.00%     40.00% # Bytes accessed per row activation
system.mem_ctrls.bytesPerActivate::128-191           35     21.88%     61.88% # Bytes accessed per row activation
system.mem_ctrls.bytesPerActivate::192-255           19     11.88%     73.75% # Bytes accessed per row activation
system.mem_ctrls.bytesPerActivate::256-319           12      7.50%     81.25% # Bytes accessed per row activation
system.mem_ctrls.bytesPerActivate::320-383            5      3.12%     84.38% # Bytes accessed per row activation
system.mem_ctrls.bytesPerActivate::384-447            5      3.12%     87.50% # Bytes accessed per row activation
system.mem_ctrls.bytesPerActivate::448-511            4      2.50%     90.00% # Bytes accessed per row activation
system.mem_ctrls.bytesPerActivate::512-575           16     10.00%    100.00% # Bytes accessed per row activation
system.mem_ctrls.bytesPerActivate::total          160                       # Bytes accessed per row activation
system.mem_ctrls.rdPerTurnAround::samples            2                       # Reads before turning the bus around for writes
system.mem_ctrls.rdPerTurnAround::mean            414                       # Reads before turning the bus around for writes
system.mem_ctrls.rdPerTurnAround::gmean    274.401166                       # Reads before turning the bus around for writes
system.mem_ctrls.rdPerTurnAround::stdev    438.406204                       # Reads before turning the bus around for writes
system.mem_ctrls.rdPerTurnAround::96-127            1     50.00%     50.00% # Reads before turning the bus around for writes
system.mem_ctrls.rdPerTurnAround::704-735            1     50.00%    100.00% # Reads before turning the bus around for writes
system.mem_ctrls.rdPerTurnAround::total             2                       # Reads before turning the bus around for writes
system.mem_ctrls.wrPerTurnAround::samples            2                       # Writes before turning the bus around for reads
system.mem_ctrls.wrPerTurnAround::mean             16                       # Writes before turning the bus around for reads
system.mem_ctrls.wrPerTurnAround::gmean     16.000000                       # Writes before turning the bus around for reads
system.mem_ctrls.wrPerTurnAround::16                2    100.00%    100.00% # Writes before turning the bus around for reads
system.mem_ctrls.wrPerTurnAround::total             2                       # Writes before turning the bus around for reads
system.mem_ctrls.bytesReadDRAM                  28864                       # Total number of bytes read from DRAM
system.mem_ctrls.bytesReadWrQ                     192                       # Total number of bytes read from write queue
system.mem_ctrls.bytesWritten                    1024                       # Total number of bytes written to DRAM
system.mem_ctrls.bytesReadSys                   29056                       # Total read bytes from the system interface side
system.mem_ctrls.bytesWrittenSys                 1984                       # Total written bytes from the system interface side
system.mem_ctrls.avgRdBW                       135.52                       # Average DRAM read bandwidth in MiByte/s
system.mem_ctrls.avgWrBW                         4.81                       # Average achieved write bandwidth in MiByte/s
system.mem_ctrls.avgRdBWSys                    136.42                       # Average system read bandwidth in MiByte/s
system.mem_ctrls.avgWrBWSys                      9.32                       # Average system write bandwidth in MiByte/s
system.mem_ctrls.peakBW                       6400.00                       # Theoretical peak bandwidth in MiByte/s
system.mem_ctrls.busUtil                         2.19                       # Data bus utilization in percentage
system.mem_ctrls.busUtilRead                     2.12                       # Data bus utilization in percentage for reads
system.mem_ctrls.busUtilWrite                    0.08                       # Data bus utilization in percentage for writes
system.mem_ctrls.totGap                     212888500                       # Total gap between requests
system.mem_ctrls.avgGap                     438945.36                       # Average gap between requests
system.mem_ctrls.masterReadBytes::.cpu.inst        18048                       # Per-master bytes read from memory
system.mem_ctrls.masterReadBytes::.cpu.data        10816                       # Per-master bytes read from memory
system.mem_ctrls.masterWriteBytes::.writebacks         1024                       # Per-master bytes write to memory
system.mem_ctrls.masterReadRate::.cpu.inst 84736770.443544030190                       # Per-master bytes read from memory rate (Bytes/sec)
system.mem_ctrls.masterReadRate::.cpu.data 50781965.265811853111                       # Per-master bytes read from memory rate (Bytes/sec)
system.mem_ctrls.masterWriteRate::.writebacks 4807760.025165619329                       # Per-master bytes write to memory rate (Bytes/sec)
system.mem_ctrls.masterReadAccesses::.cpu.inst          568                       # Per-master read serviced memory accesses
system.mem_ctrls.masterReadAccesses::.cpu.data          340                       # Per-master read serviced memory accesses
system.mem_ctrls.masterWriteAccesses::.writebacks           62                       # Per-master write serviced memory accesses
system.mem_ctrls.masterReadTotalLat::.cpu.inst     19236000                       # Per-master read total memory access latency
system.mem_ctrls.masterReadTotalLat::.cpu.data     12293000                       # Per-master read total memory access latency
system.mem_ctrls.masterWriteTotalLat::.writebacks   3737686000                       # Per-master write total memory access latency
system.mem_ctrls.masterReadAvgLat::.cpu.inst     33866.20                       # Per-master read average memory access latency
system.mem_ctrls.masterReadAvgLat::.cpu.data     36155.88                       # Per-master read average memory access latency
system.mem_ctrls.masterWriteAvgLat::.writebacks  60285258.06                       # Per-master write average memory access latency
system.mem_ctrls.pageHitRate                    79.56                       # Row buffer hit rate, read and write combined
system.mem_ctrls.rank0.actEnergy               298095                       # Energy for activate commands per rank (pJ)
system.mem_ctrls.rank0.preEnergy         150528.000000                       # Energy for precharge commands per rank (pJ)
system.mem_ctrls.rank0.readEnergy             1060752                       # Energy for read commands per rank (pJ)
system.mem_ctrls.rank0.writeEnergy              29952                       # Energy for write commands per rank (pJ)
system.mem_ctrls.rank0.refreshEnergy          1305720                       # Energy for refresh commands per rank (pJ)
system.mem_ctrls.rank0.actBackEnergy          1955043                       # Energy for active background per rank (pJ)
system.mem_ctrls.rank0.preBackEnergy     5514772.800000                       # Energy for precharge background per rank (pJ)
system.mem_ctrls.rank0.actPowerDownEnergy            0                       # Energy for active power-down per rank (pJ)
system.mem_ctrls.rank0.prePowerDownEnergy            0                       # Energy for precharge power-down per rank (pJ)
system.mem_ctrls.rank0.selfRefreshEnergy            0                       # Energy for self refresh per rank (pJ)
system.mem_ctrls.rank0.totalEnergy       10314862.800000                       # Total energy per rank (pJ)
system.mem_ctrls.rank0.averagePower         48.429087                       # Core power per rank (mW)
system.mem_ctrls.rank0.totalIdleTime                0                       # Total Idle time Per DRAM Rank
system.mem_ctrls.rank0.memoryStateTime::IDLE    167746500                       # Time in different power states
system.mem_ctrls.rank0.memoryStateTime::REF      7020000                       # Time in different power states
system.mem_ctrls.rank0.memoryStateTime::SREF            0                       # Time in different power states
system.mem_ctrls.rank0.memoryStateTime::PRE_PDN            0                       # Time in different power states
system.mem_ctrls.rank0.memoryStateTime::ACT     38222500                       # Time in different power states
system.mem_ctrls.rank0.memoryStateTime::ACT_PDN            0                       # Time in different power states
system.cpu_clk_domain.clock                       250                       # Clock period in ticks
system.cpu.numPwrStateTransitions                   1                       # Number of power state transitions
system.cpu.pwrStateResidencyTicks::ON       212989000                       # Cumulative time (in ticks) in various power states
system.cpu.icache.pwrStateResidencyTicks::UNDEFINED    212989000                       # Cumulative time (in ticks) in various power states
system.cpu.icache.demand_hits::.cpu.inst       240185                       # number of demand (read+write) hits
system.cpu.icache.demand_hits::total           240185                       # number of demand (read+write) hits
system.cpu.icache.overall_hits::.cpu.inst       240185                       # number of overall hits
system.cpu.icache.overall_hits::total          240185                       # number of overall hits
system.cpu.icache.demand_misses::.cpu.inst          284                       # number of demand (read+write) misses
system.cpu.icache.demand_misses::total            284                       # number of demand (read+write) misses
system.cpu.icache.overall_misses::.cpu.inst          284                       # number of overall misses
system.cpu.icache.overall_misses::total           284                       # number of overall misses
system.cpu.icache.demand_miss_latency::.cpu.inst     19199250                       # number of demand (read+write) miss cycles
system.cpu.icache.demand_miss_latency::total     19199250                       # number of demand (read+write) miss cycles
system.cpu.icache.overall_miss_latency::.cpu.inst     19199250                       # number of overall miss cycles
system.cpu.icache.overall_miss_latency::total     19199250                       # number of overall miss cycles
system.cpu.icache.demand_accesses::.cpu.inst       240469                       # number of demand (read+write) accesses
system.cpu.icache.demand_accesses::total       240469                       # number of demand (read+write) accesses
system.cpu.icache.overall_accesses::.cpu.inst       240469                       # number of overall (read+write) accesses
system.cpu.icache.overall_accesses::total       240469                       # number of overall (read+write) accesses
system.cpu.icache.demand_miss_rate::.cpu.inst     0.001181                       # miss rate for demand accesses
system.cpu.icache.demand_miss_rate::total     0.001181                       # miss rate for demand accesses
system.cpu.icache.overall_miss_rate::.cpu.inst     0.001181                       # miss rate for overall accesses
system.cpu.icache.overall_miss_rate::total     0.001181                       # miss rate for overall accesses
system.cpu.icache.demand_avg_miss_latency::.cpu.inst 67602.992958                       # average overall miss latency
system.cpu.icache.demand_avg_miss_latency::total 67602.992958                       # average overall miss latency
system.cpu.icache.overall_avg_miss_latency::.cpu.inst 67602.992958                       # average overall miss latency
system.cpu.icache.overall_avg_miss_latency::total 67602.992958                       # average overall miss latency
system.cpu.icache.blocked_cycles::no_mshrs            0                       # number of cycles access was blocked
system.cpu.icache.blocked_cycles::no_targets            0                       # number of cycles access was blocked
system.cpu.icache.blocked::no_mshrs                 0                       # number of cycles access was blocked
system.cpu.icache.blocked::no_targets               0                       # number of cycles access was blocked
system.cpu.icache.avg_blocked_cycles::no_mshrs          nan                       # average number of cycles each access was blocked
system.cpu.icache.avg_blocked_cycles::no_targets          nan                       # average number of cycles each access was blocked
system.cpu.icache.writebacks::.writebacks           33                       # number of writebacks
system.cpu.icache.writebacks::total                33                       # number of writebacks
system.cpu.icache.demand_mshr_misses::.cpu.inst          284                       # number of demand (read+write) MSHR misses
system.cpu.icache.demand_mshr_misses::total          284                       # number of demand (read+write) MSHR misses
system.cpu.icache.overall_mshr_misses::.cpu.inst          284                       # number of overall MSHR misses
system.cpu.icache.overall_mshr_misses::total          284                       # number of overall MSHR misses
system.cpu.icache.demand_mshr_miss_latency::.cpu.inst     19057250                       # number of demand (read+write) MSHR miss cycles
system.cpu.icache.demand_mshr_miss_latency::total     19057250                       # number of demand (read+write) MSHR miss cycles
system.cpu.icache.overall_mshr_miss_latency::.cpu.inst     19057250                       # number of overall MSHR miss cycles
system.cpu.icache.overall_mshr_miss_latency::total     19057250                       # number of overall MSHR miss cycles
system.cpu.icache.demand_mshr_miss_rate::.cpu.inst     0.001181                       # mshr miss rate for demand accesses
system.cpu.icache.demand_mshr_miss_rate::total     0.001181                       # mshr miss rate for demand accesses
system.cpu.icache.overall_mshr_miss_rate::.cpu.inst     0.001181                       # mshr miss rate for overall accesses
system.cpu.icache.overall_mshr_miss_rate::total     0.001181                       # mshr miss rate for overall accesses
system.cpu.icache.demand_avg_mshr_miss_latency::.cpu.inst 67102.992958                       # average overall mshr miss latency
system.cpu.icache.demand_avg_mshr_miss_latency::total 67102.992958                       # average overall mshr miss latency
system.cpu.icache.overall_avg_mshr_miss_latency::.cpu.inst 67102.992958                       # average overall mshr miss latency
system.cpu.icache.overall_avg_mshr_miss_latency::total 67102.992958                       # average overall mshr miss latency
system.cpu.icache.replacements                     33                       # number of replacements
system.cpu.icache.ReadReq_hits::.cpu.inst       240185                       # number of ReadReq hits
system.cpu.icache.ReadReq_hits::total          240185                       # number of ReadReq hits
system.cpu.icache.ReadReq_misses::.cpu.inst          284                       # number of ReadReq misses
system.cpu.icache.ReadReq_misses::total           284                       # number of ReadReq misses
system.cpu.icache.ReadReq_miss_latency::.cpu.inst     19199250                       # number of ReadReq miss cycles
system.cpu.icache.ReadReq_miss_latency::total     19199250                       # number of ReadReq miss cycles
system.cpu.icache.ReadReq_accesses::.cpu.inst       240469                       # number of ReadReq accesses(hits+misses)
system.cpu.icache.ReadReq_accesses::total       240469                       # number of ReadReq accesses(hits+misses)
system.cpu.icache.ReadReq_miss_rate::.cpu.inst     0.001181                       # miss rate for ReadReq accesses
system.cpu.icache.ReadReq_miss_rate::total     0.001181                       # miss rate for ReadReq accesses
system.cpu.icache.ReadReq_avg_miss_latency::.cpu.inst 67602.992958                       # average ReadReq miss latency
system.cpu.icache.ReadReq_avg_miss_latency::total 67602.992958                       # average ReadReq miss latency
system.cpu.icache.ReadReq_mshr_misses::.cpu.inst          284                       # number of ReadReq MSHR misses
system.cpu.icache.ReadReq_mshr_misses::total          284                       # number of ReadReq MSHR misses
system.cpu.icache.ReadReq_mshr_miss_latency::.cpu.inst     19057250                       # number of ReadReq MSHR miss cycles
system.cpu.icache.ReadReq_mshr_miss_latency::total     19057250                       # number of ReadReq MSHR miss cycles
system.cpu.icache.ReadReq_mshr_miss_rate::.cpu.inst     0.001181                       # mshr miss rate for ReadReq accesses
system.cpu.icache.ReadReq_mshr_miss_rate::total     0.001181                       # mshr miss rate for ReadReq accesses
system.cpu.icache.ReadReq_avg_mshr_miss_latency::.cpu.inst 67102.992958                       # average ReadReq mshr miss latency
system.cpu.icache.ReadReq_avg_mshr_miss_latency::total 67102.992958                       # average ReadReq mshr miss latency
system.cpu.icache.tags.pwrStateResidencyTicks::UNDEFINED    212989000                       # Cumulative time (in ticks) in various power states
system.cpu.icache.tags.tagsinuse           158.212096                       # Cycle average of tags in use
system.cpu.icache.tags.total_refs              240469                       # Total number of references to valid blocks.
system.cpu.icache.tags.sampled_refs               284                       # Sample count of references to valid blocks.
system.cpu.icache.tags.avg_refs            846.721831                       # Average number of references to valid blocks.
system.cpu.icache.tags.warmup_cycle             92000                       # Cycle when the warmup percentage was hit.
system.cpu.icache.tags.occ_blocks::.cpu.inst   158.212096                       # Average occupied blocks per requestor
system.cpu.icache.tags.occ_percent::.cpu.inst     0.309008                       # Average percentage of cache occupancy
system.cpu.icache.tags.occ_percent::total     0.309008                       # Average percentage of cache occupancy
system.cpu.icache.tags.occ_task_id_blocks::1024          251                       # Occupied blocks per task id
system.cpu.icache.tags.age_task_id_blocks_1024::0           92                       # Occupied blocks per task id
system.cpu.icache.tags.age_task_id_blocks_1024::1           14                       # Occupied blocks per task id
system.cpu.icache.tags.age_task_id_blocks_1024::2          145                       # Occupied blocks per task id
system.cpu.icache.tags.occ_task_id_percent::1024     0.490234                       # Percentage of cache occupancy per task id
system.cpu.icache.tags.tag_accesses            481222                       # Number of tag accesses
system.cpu.icache.tags.data_accesses           481222                       # Number of data accesses
system.cpu.dtb.walker.pwrStateResidencyTicks::UNDEFINED    212989000                       # Cumulative time (in ticks) in various power states
system.cpu.dtb.stage2_mmu.stage2_tlb.walker.pwrStateResidencyTicks::UNDEFINED    212989000                       # Cumulative time (in ticks) in various power states
system.cpu.itb.walker.pwrStateResidencyTicks::UNDEFINED    212989000                       # Cumulative time (in ticks) in various power states
system.cpu.itb.stage2_mmu.stage2_tlb.walker.pwrStateResidencyTicks::UNDEFINED    212989000                       # Cumulative time (in ticks) in various power states
system.cpu.dcache.pwrStateResidencyTicks::UNDEFINED    212989000                       # Cumulative time (in ticks) in various power states
system.cpu.dcache.demand_hits::.cpu.data       122774                       # number of demand (read+write) hits
system.cpu.dcache.demand_hits::total           122774                       # number of demand (read+write) hits
system.cpu.dcache.overall_hits::.cpu.data       122795                       # number of overall hits
system.cpu.dcache.overall_hits::total          122795                       # number of overall hits
system.cpu.dcache.demand_misses::.cpu.data          164                       # number of demand (read+write) misses
system.cpu.dcache.demand_misses::total            164                       # number of demand (read+write) misses
system.cpu.dcache.overall_misses::.cpu.data          173                       # number of overall misses
system.cpu.dcache.overall_misses::total           173                       # number of overall misses
system.cpu.dcache.demand_miss_latency::.cpu.data     11478250                       # number of demand (read+write) miss cycles
system.cpu.dcache.demand_miss_latency::total     11478250                       # number of demand (read+write) miss cycles
system.cpu.dcache.overall_miss_latency::.cpu.data     11478250                       # number of overall miss cycles
system.cpu.dcache.overall_miss_latency::total     11478250                       # number of overall miss cycles
system.cpu.dcache.demand_accesses::.cpu.data       122938                       # number of demand (read+write) accesses
system.cpu.dcache.demand_accesses::total       122938                       # number of demand (read+write) accesses
system.cpu.dcache.overall_accesses::.cpu.data       122968                       # number of overall (read+write) accesses
system.cpu.dcache.overall_accesses::total       122968                       # number of overall (read+write) accesses
system.cpu.dcache.demand_miss_rate::.cpu.data     0.001334                       # miss rate for demand accesses
system.cpu.dcache.demand_miss_rate::total     0.001334                       # miss rate for demand accesses
system.cpu.dcache.overall_miss_rate::.cpu.data     0.001407                       # miss rate for overall accesses
system.cpu.dcache.overall_miss_rate::total     0.001407                       # miss rate for overall accesses
system.cpu.dcache.demand_avg_miss_latency::.cpu.data 69989.329268                       # average overall miss latency
system.cpu.dcache.demand_avg_miss_latency::total 69989.329268                       # average overall miss latency
system.cpu.dcache.overall_avg_miss_latency::.cpu.data 66348.265896                       # average overall miss latency
system.cpu.dcache.overall_avg_miss_latency::total 66348.265896                       # average overall miss latency
system.cpu.dcache.blocked_cycles::no_mshrs            0                       # number of cycles access was blocked
system.cpu.dcache.blocked_cycles::no_targets            0                       # number of cycles access was blocked
system.cpu.dcache.blocked::no_mshrs                 0                       # number of cycles access was blocked
system.cpu.dcache.blocked::no_targets               0                       # number of cycles access was blocked
system.cpu.dcache.avg_blocked_cycles::no_mshrs          nan                       # average number of cycles each access was blocked
system.cpu.dcache.avg_blocked_cycles::no_targets          nan                       # average number of cycles each access was blocked
system.cpu.dcache.demand_mshr_hits::.cpu.data            1                       # number of demand (read+write) MSHR hits
system.cpu.dcache.demand_mshr_hits::total            1                       # number of demand (read+write) MSHR hits
system.cpu.dcache.overall_mshr_hits::.cpu.data            1                       # number of overall MSHR hits
system.cpu.dcache.overall_mshr_hits::total            1                       # number of overall MSHR hits
system.cpu.dcache.demand_mshr_misses::.cpu.data          163                       # number of demand (read+write) MSHR misses
system.cpu.dcache.demand_mshr_misses::total          163                       # number of demand (read+write) MSHR misses
system.cpu.dcache.overall_mshr_misses::.cpu.data          170                       # number of overall MSHR misses
system.cpu.dcache.overall_mshr_misses::total          170                       # number of overall MSHR misses
system.cpu.dcache.demand_mshr_miss_latency::.cpu.data     11310750                       # number of demand (read+write) MSHR miss cycles
system.cpu.dcache.demand_mshr_miss_latency::total     11310750                       # number of demand (read+write) MSHR miss cycles
system.cpu.dcache.overall_mshr_miss_latency::.cpu.data     11809250                       # number of overall MSHR miss cycles
system.cpu.dcache.overall_mshr_miss_latency::total     11809250                       # number of overall MSHR miss cycles
system.cpu.dcache.demand_mshr_miss_rate::.cpu.data     0.001326                       # mshr miss rate for demand accesses
system.cpu.dcache.demand_mshr_miss_rate::total     0.001326                       # mshr miss rate for demand accesses
system.cpu.dcache.overall_mshr_miss_rate::.cpu.data     0.001382                       # mshr miss rate for overall accesses
system.cpu.dcache.overall_mshr_miss_rate::total     0.001382                       # mshr miss rate for overall accesses
system.cpu.dcache.demand_avg_mshr_miss_latency::.cpu.data 69391.104294                       # average overall mshr miss latency
system.cpu.dcache.demand_avg_mshr_miss_latency::total 69391.104294                       # average overall mshr miss latency
system.cpu.dcache.overall_avg_mshr_miss_latency::.cpu.data 69466.176471                       # average overall mshr miss latency
system.cpu.dcache.overall_avg_mshr_miss_latency::total 69466.176471                       # average overall mshr miss latency
system.cpu.dcache.replacements                      0                       # number of replacements
system.cpu.dcache.ReadReq_hits::.cpu.data       101294                       # number of ReadReq hits
system.cpu.dcache.ReadReq_hits::total          101294                       # number of ReadReq hits
system.cpu.dcache.ReadReq_misses::.cpu.data           92                       # number of ReadReq misses
system.cpu.dcache.ReadReq_misses::total            92                       # number of ReadReq misses
system.cpu.dcache.ReadReq_miss_latency::.cpu.data      6575250                       # number of ReadReq miss cycles
system.cpu.dcache.ReadReq_miss_latency::total      6575250                       # number of ReadReq miss cycles
system.cpu.dcache.ReadReq_accesses::.cpu.data       101386                       # number of ReadReq accesses(hits+misses)
system.cpu.dcache.ReadReq_accesses::total       101386                       # number of ReadReq accesses(hits+misses)
system.cpu.dcache.ReadReq_miss_rate::.cpu.data     0.000907                       # miss rate for ReadReq accesses
system.cpu.dcache.ReadReq_miss_rate::total     0.000907                       # miss rate for ReadReq accesses
system.cpu.dcache.ReadReq_avg_miss_latency::.cpu.data 71470.108696                       # average ReadReq miss latency
system.cpu.dcache.ReadReq_avg_miss_latency::total 71470.108696                       # average ReadReq miss latency
system.cpu.dcache.ReadReq_mshr_hits::.cpu.data            1                       # number of ReadReq MSHR hits
system.cpu.dcache.ReadReq_mshr_hits::total            1                       # number of ReadReq MSHR hits
system.cpu.dcache.ReadReq_mshr_misses::.cpu.data           91                       # number of ReadReq MSHR misses
system.cpu.dcache.ReadReq_mshr_misses::total           91                       # number of ReadReq MSHR misses
system.cpu.dcache.ReadReq_mshr_miss_latency::.cpu.data      6443750                       # number of ReadReq MSHR miss cycles
system.cpu.dcache.ReadReq_mshr_miss_latency::total      6443750                       # number of ReadReq MSHR miss cycles
system.cpu.dcache.ReadReq_mshr_miss_rate::.cpu.data     0.000898                       # mshr miss rate for ReadReq accesses
system.cpu.dcache.ReadReq_mshr_miss_rate::total     0.000898                       # mshr miss rate for ReadReq accesses
system.cpu.dcache.ReadReq_avg_mshr_miss_latency::.cpu.data 70810.439560                       # average ReadReq mshr miss latency
system.cpu.dcache.ReadReq_avg_mshr_miss_latency::total 70810.439560                       # average ReadReq mshr miss latency
system.cpu.dcache.WriteReq_hits::.cpu.data        21480                       # number of WriteReq hits
system.cpu.dcache.WriteReq_hits::total          21480                       # number of WriteReq hits
system.cpu.dcache.WriteReq_misses::.cpu.data           72                       # number of WriteReq misses
system.cpu.dcache.WriteReq_misses::total           72                       # number of WriteReq misses
system.cpu.dcache.WriteReq_miss_latency::.cpu.data      4903000                       # number of WriteReq miss cycles
system.cpu.dcache.WriteReq_miss_latency::total      4903000                       # number of WriteReq miss cycles
system.cpu.dcache.WriteReq_accesses::.cpu.data        21552                       # number of WriteReq accesses(hits+misses)
system.cpu.dcache.WriteReq_accesses::total        21552                       # number of WriteReq accesses(hits+misses)
system.cpu.dcache.WriteReq_miss_rate::.cpu.data     0.003341                       # miss rate for WriteReq accesses
system.cpu.dcache.WriteReq_miss_rate::total     0.003341                       # miss rate for WriteReq accesses
system.cpu.dcache.WriteReq_avg_miss_latency::.cpu.data 68097.222222                       # average WriteReq miss latency
system.cpu.dcache.WriteReq_avg_miss_latency::total 68097.222222                       # average WriteReq miss latency
system.cpu.dcache.WriteReq_mshr_misses::.cpu.data           72                       # number of WriteReq MSHR misses
system.cpu.dcache.WriteReq_mshr_misses::total           72                       # number of WriteReq MSHR misses
system.cpu.dcache.WriteReq_mshr_miss_latency::.cpu.data      4867000                       # number of WriteReq MSHR miss cycles
system.cpu.dcache.WriteReq_mshr_miss_latency::total      4867000                       # number of WriteReq MSHR miss cycles
system.cpu.dcache.WriteReq_mshr_miss_rate::.cpu.data     0.003341                       # mshr miss rate for WriteReq accesses
system.cpu.dcache.WriteReq_mshr_miss_rate::total     0.003341                       # mshr miss rate for WriteReq accesses
system.cpu.dcache.WriteReq_avg_mshr_miss_latency::.cpu.data 67597.222222                       # average WriteReq mshr miss latency
system.cpu.dcache.WriteReq_avg_mshr_miss_latency::total 67597.222222                       # average WriteReq mshr miss latency
system.cpu.dcache.SoftPFReq_hits::.cpu.data           21                       # number of SoftPFReq hits
system.cpu.dcache.SoftPFReq_hits::total            21                       # number of SoftPFReq hits
system.cpu.dcache.SoftPFReq_misses::.cpu.data            9                       # number of SoftPFReq misses
system.cpu.dcache.SoftPFReq_misses::total            9                       # number of SoftPFReq misses
system.cpu.dcache.SoftPFReq_accesses::.cpu.data           30                       # number of SoftPFReq accesses(hits+misses)
system.cpu.dcache.SoftPFReq_accesses::total           30                       # number of SoftPFReq accesses(hits+misses)
system.cpu.dcache.SoftPFReq_miss_rate::.cpu.data     0.300000                       # miss rate for SoftPFReq accesses
system.cpu.dcache.SoftPFReq_miss_rate::total     0.300000                       # miss rate for SoftPFReq accesses
system.cpu.dcache.SoftPFReq_mshr_misses::.cpu.data            7                       # number of SoftPFReq MSHR misses
system.cpu.dcache.SoftPFReq_mshr_misses::total            7                       # number of SoftPFReq MSHR misses
system.cpu.dcache.SoftPFReq_mshr_miss_latency::.cpu.data       498500                       # number of SoftPFReq MSHR miss cycles
system.cpu.dcache.SoftPFReq_mshr_miss_latency::total       498500                       # number of SoftPFReq MSHR miss cycles
system.cpu.dcache.SoftPFReq_mshr_miss_rate::.cpu.data     0.233333                       # mshr miss rate for SoftPFReq accesses
system.cpu.dcache.SoftPFReq_mshr_miss_rate::total     0.233333                       # mshr miss rate for SoftPFReq accesses
system.cpu.dcache.SoftPFReq_avg_mshr_miss_latency::.cpu.data 71214.285714                       # average SoftPFReq mshr miss latency
system.cpu.dcache.SoftPFReq_avg_mshr_miss_latency::total 71214.285714                       # average SoftPFReq mshr miss latency
system.cpu.dcache.LoadLockedReq_hits::.cpu.data           18                       # number of LoadLockedReq hits
system.cpu.dcache.LoadLockedReq_hits::total           18                       # number of LoadLockedReq hits
system.cpu.dcache.LoadLockedReq_accesses::.cpu.data           18                       # number of LoadLockedReq accesses(hits+misses)
system.cpu.dcache.LoadLockedReq_accesses::total           18                       # number of LoadLockedReq accesses(hits+misses)
system.cpu.dcache.StoreCondReq_hits::.cpu.data           18                       # number of StoreCondReq hits
system.cpu.dcache.StoreCondReq_hits::total           18                       # number of StoreCondReq hits
system.cpu.dcache.StoreCondReq_accesses::.cpu.data           18                       # number of StoreCondReq accesses(hits+misses)
system.cpu.dcache.StoreCondReq_accesses::total           18                       # number of StoreCondReq accesses(hits+misses)
system.cpu.dcache.tags.pwrStateResidencyTicks::UNDEFINED    212989000                       # Cumulative time (in ticks) in various power states
system.cpu.dcache.tags.tagsinuse           125.805835                       # Cycle average of tags in use
system.cpu.dcache.tags.total_refs              123001                       # Total number of references to valid blocks.
system.cpu.dcache.tags.sampled_refs               170                       # Sample count of references to valid blocks.
system.cpu.dcache.tags.avg_refs            723.535294                       # Average number of references to valid blocks.
system.cpu.dcache.tags.warmup_cycle            171000                       # Cycle when the warmup percentage was hit.
system.cpu.dcache.tags.occ_blocks::.cpu.data   125.805835                       # Average occupied blocks per requestor
system.cpu.dcache.tags.occ_percent::.cpu.data     0.122857                       # Average percentage of cache occupancy
system.cpu.dcache.tags.occ_percent::total     0.122857                       # Average percentage of cache occupancy
system.cpu.dcache.tags.occ_task_id_blocks::1024          170                       # Occupied blocks per task id
system.cpu.dcache.tags.age_task_id_blocks_1024::0           26                       # Occupied blocks per task id
system.cpu.dcache.tags.age_task_id_blocks_1024::1           12                       # Occupied blocks per task id
system.cpu.dcache.tags.age_task_id_blocks_1024::2          132                       # Occupied blocks per task id
system.cpu.dcache.tags.occ_task_id_percent::1024     0.166016                       # Percentage of cache occupancy per task id
system.cpu.dcache.tags.tag_accesses            246178                       # Number of tag accesses
system.cpu.dcache.tags.data_accesses           246178                       # Number of data accesses

---------- End Simulation Statistics   ----------
