
---------- Begin Simulation Statistics ----------
final_tick                                83986370500                       # Number of ticks from beginning of simulation (restored from checkpoints and never reset)
host_inst_rate                                 281133                       # Simulator instruction rate (inst/s)
host_mem_usage                                 691764                       # Number of bytes of host memory used
host_op_rate                                   281685                       # Simulator op (including micro ops) rate (op/s)
host_seconds                                   355.70                       # Real time elapsed on the host
host_tick_rate                              236113177                       # Simulator tick rate (ticks/s)
sim_freq                                 1000000000000                       # Frequency of simulated ticks
sim_insts                                   100000001                       # Number of instructions simulated
sim_ops                                     100196363                       # Number of ops (including micro ops) simulated
sim_seconds                                  0.083986                       # Number of seconds simulated
sim_ticks                                 83986370500                       # Number of ticks simulated
system.cpu.branchPred.BTBCorrect                    0                       # Number of correct BTB predictions (this stat may not work properly.
system.cpu.branchPred.BTBHitPct             99.693601                       # BTB Hit Percentage
system.cpu.branchPred.BTBHits                 2095397                       # Number of BTB hits
system.cpu.branchPred.BTBLookups              2101837                       # Number of BTB lookups
system.cpu.branchPred.RASInCorrect                  5                       # Number of incorrect RAS predictions.
system.cpu.branchPred.condIncorrect             81341                       # Number of conditional branches incorrect
system.cpu.branchPred.condPredicted           3727687                       # Number of conditional branches predicted
system.cpu.branchPred.indirectHits                291                       # Number of indirect target hits.
system.cpu.branchPred.indirectLookups             809                       # Number of indirect predictor lookups.
system.cpu.branchPred.indirectMisses              518                       # Number of indirect misses.
system.cpu.branchPred.lookups                 4477773                       # Number of BP lookups
system.cpu.branchPred.usedRAS                   65342                       # Number of times the RAS was used to get a target.
system.cpu.branchPredindirectMispredicted          171                       # Number of mispredicted indirect branches.
system.cpu.committedInsts                   100000001                       # Number of instructions committed
system.cpu.committedOps                     100196363                       # Number of ops (including micro ops) committed
system.cpu.cpi                               1.679727                       # CPI: cycles per instruction
system.cpu.discardedOps                        190665                       # Number of ops (including micro ops) which were discarded before commit
system.cpu.dtb.accesses                             0                       # DTB accesses
system.cpu.dtb.align_faults                         0                       # Number of TLB faults due to alignment restrictions
system.cpu.dtb.domain_faults                        0                       # Number of TLB faults due to domain restrictions
system.cpu.dtb.flush_entries                        0                       # Number of entries that have been flushed from TLB
system.cpu.dtb.flush_tlb                            0                       # Number of times complete TLB was flushed
system.cpu.dtb.flush_tlb_asid                       0                       # Number of times TLB was flushed by ASID
system.cpu.dtb.flush_tlb_mva                        0                       # Number of times TLB was flushed by MVA
system.cpu.dtb.flush_tlb_mva_asid                   0                       # Number of times TLB was flushed by MVA & ASID
system.cpu.dtb.hits                                 0                       # DTB hits
system.cpu.dtb.inst_accesses                        0                       # ITB inst accesses
system.cpu.dtb.inst_hits                            0                       # ITB inst hits
system.cpu.dtb.inst_misses                          0                       # ITB inst misses
system.cpu.dtb.misses                               0                       # DTB misses
system.cpu.dtb.perms_faults                         0                       # Number of TLB faults due to permissions restrictions
system.cpu.dtb.prefetch_faults                      0                       # Number of TLB faults due to prefetch
system.cpu.dtb.read_accesses                        0                       # DTB read accesses
system.cpu.dtb.read_hits                            0                       # DTB read hits
system.cpu.dtb.read_misses                          0                       # DTB read misses
system.cpu.dtb.stage2_mmu.stage2_tlb.accesses            0                       # DTB accesses
system.cpu.dtb.stage2_mmu.stage2_tlb.align_faults            0                       # Number of TLB faults due to alignment restrictions
system.cpu.dtb.stage2_mmu.stage2_tlb.domain_faults            0                       # Number of TLB faults due to domain restrictions
system.cpu.dtb.stage2_mmu.stage2_tlb.flush_entries            0                       # Number of entries that have been flushed from TLB
system.cpu.dtb.stage2_mmu.stage2_tlb.flush_tlb            0                       # Number of times complete TLB was flushed
system.cpu.dtb.stage2_mmu.stage2_tlb.flush_tlb_asid            0                       # Number of times TLB was flushed by ASID
system.cpu.dtb.stage2_mmu.stage2_tlb.flush_tlb_mva            0                       # Number of times TLB was flushed by MVA
system.cpu.dtb.stage2_mmu.stage2_tlb.flush_tlb_mva_asid            0                       # Number of times TLB was flushed by MVA & ASID
system.cpu.dtb.stage2_mmu.stage2_tlb.hits            0                       # DTB hits
system.cpu.dtb.stage2_mmu.stage2_tlb.inst_accesses            0                       # ITB inst accesses
system.cpu.dtb.stage2_mmu.stage2_tlb.inst_hits            0                       # ITB inst hits
system.cpu.dtb.stage2_mmu.stage2_tlb.inst_misses            0                       # ITB inst misses
system.cpu.dtb.stage2_mmu.stage2_tlb.misses            0                       # DTB misses
system.cpu.dtb.stage2_mmu.stage2_tlb.perms_faults            0                       # Number of TLB faults due to permissions restrictions
system.cpu.dtb.stage2_mmu.stage2_tlb.prefetch_faults            0                       # Number of TLB faults due to prefetch
system.cpu.dtb.stage2_mmu.stage2_tlb.read_accesses            0                       # DTB read accesses
system.cpu.dtb.stage2_mmu.stage2_tlb.read_hits            0                       # DTB read hits
system.cpu.dtb.stage2_mmu.stage2_tlb.read_misses            0                       # DTB read misses
system.cpu.dtb.stage2_mmu.stage2_tlb.walker.walkRequestOrigin_Requested::Data            0                       # Table walker requests started/completed, data/inst
system.cpu.dtb.stage2_mmu.stage2_tlb.walker.walkRequestOrigin_Requested::Inst            0                       # Table walker requests started/completed, data/inst
system.cpu.dtb.stage2_mmu.stage2_tlb.walker.walkRequestOrigin_Requested::total            0                       # Table walker requests started/completed, data/inst
system.cpu.dtb.stage2_mmu.stage2_tlb.walker.walkRequestOrigin_Completed::Data            0                       # Table walker requests started/completed, data/inst
system.cpu.dtb.stage2_mmu.stage2_tlb.walker.walkRequestOrigin_Completed::Inst            0                       # Table walker requests started/completed, data/inst
system.cpu.dtb.stage2_mmu.stage2_tlb.walker.walkRequestOrigin_Completed::total            0                       # Table walker requests started/completed, data/inst
system.cpu.dtb.stage2_mmu.stage2_tlb.walker.walkRequestOrigin::total            0                       # Table walker requests started/completed, data/inst
system.cpu.dtb.stage2_mmu.stage2_tlb.walker.walks            0                       # Table walker walks requested
system.cpu.dtb.stage2_mmu.stage2_tlb.write_accesses            0                       # DTB write accesses
system.cpu.dtb.stage2_mmu.stage2_tlb.write_hits            0                       # DTB write hits
system.cpu.dtb.stage2_mmu.stage2_tlb.write_misses            0                       # DTB write misses
system.cpu.dtb.walker.walkRequestOrigin_Requested::Data            0                       # Table walker requests started/completed, data/inst
system.cpu.dtb.walker.walkRequestOrigin_Requested::Inst            0                       # Table walker requests started/completed, data/inst
system.cpu.dtb.walker.walkRequestOrigin_Requested::total            0                       # Table walker requests started/completed, data/inst
system.cpu.dtb.walker.walkRequestOrigin_Completed::Data            0                       # Table walker requests started/completed, data/inst
system.cpu.dtb.walker.walkRequestOrigin_Completed::Inst            0                       # Table walker requests started/completed, data/inst
system.cpu.dtb.walker.walkRequestOrigin_Completed::total            0                       # Table walker requests started/completed, data/inst
system.cpu.dtb.walker.walkRequestOrigin::total            0                       # Table walker requests started/completed, data/inst
system.cpu.dtb.walker.walks                         0                       # Table walker walks requested
system.cpu.dtb.write_accesses                       0                       # DTB write accesses
system.cpu.dtb.write_hits                           0                       # DTB write hits
system.cpu.dtb.write_misses                         0                       # DTB write misses
system.cpu.fetch2.amo_instructions                  0                       # Number of memory atomic instructions successfully decoded
system.cpu.fetch2.fp_instructions                   0                       # Number of floating point instructions successfully decoded
system.cpu.fetch2.int_instructions           42610147                       # Number of integer instructions successfully decoded
system.cpu.fetch2.load_instructions          43402299                       # Number of memory load instructions successfully decoded
system.cpu.fetch2.store_instructions         11001400                       # Number of memory store instructions successfully decoded
system.cpu.fetch2.vec_instructions                  0                       # Number of SIMD instructions successfully decoded
system.cpu.idleCycles                        35270800                       # Total number of cycles that the object has spent stopped
system.cpu.ipc                               0.595335                       # IPC: instructions per cycle
system.cpu.itb.accesses                             0                       # DTB accesses
system.cpu.itb.align_faults                         0                       # Number of TLB faults due to alignment restrictions
system.cpu.itb.domain_faults                        0                       # Number of TLB faults due to domain restrictions
system.cpu.itb.flush_entries                        0                       # Number of entries that have been flushed from TLB
system.cpu.itb.flush_tlb                            0                       # Number of times complete TLB was flushed
system.cpu.itb.flush_tlb_asid                       0                       # Number of times TLB was flushed by ASID
system.cpu.itb.flush_tlb_mva                        0                       # Number of times TLB was flushed by MVA
system.cpu.itb.flush_tlb_mva_asid                   0                       # Number of times TLB was flushed by MVA & ASID
system.cpu.itb.hits                                 0                       # DTB hits
system.cpu.itb.inst_accesses                        0                       # ITB inst accesses
system.cpu.itb.inst_hits                            0                       # ITB inst hits
system.cpu.itb.inst_misses                          0                       # ITB inst misses
system.cpu.itb.misses                               0                       # DTB misses
system.cpu.itb.perms_faults                         0                       # Number of TLB faults due to permissions restrictions
system.cpu.itb.prefetch_faults                      0                       # Number of TLB faults due to prefetch
system.cpu.itb.read_accesses                        0                       # DTB read accesses
system.cpu.itb.read_hits                            0                       # DTB read hits
system.cpu.itb.read_misses                          0                       # DTB read misses
system.cpu.itb.stage2_mmu.stage2_tlb.accesses            0                       # DTB accesses
system.cpu.itb.stage2_mmu.stage2_tlb.align_faults            0                       # Number of TLB faults due to alignment restrictions
system.cpu.itb.stage2_mmu.stage2_tlb.domain_faults            0                       # Number of TLB faults due to domain restrictions
system.cpu.itb.stage2_mmu.stage2_tlb.flush_entries            0                       # Number of entries that have been flushed from TLB
system.cpu.itb.stage2_mmu.stage2_tlb.flush_tlb            0                       # Number of times complete TLB was flushed
system.cpu.itb.stage2_mmu.stage2_tlb.flush_tlb_asid            0                       # Number of times TLB was flushed by ASID
system.cpu.itb.stage2_mmu.stage2_tlb.flush_tlb_mva            0                       # Number of times TLB was flushed by MVA
system.cpu.itb.stage2_mmu.stage2_tlb.flush_tlb_mva_asid            0                       # Number of times TLB was flushed by MVA & ASID
system.cpu.itb.stage2_mmu.stage2_tlb.hits            0                       # DTB hits
system.cpu.itb.stage2_mmu.stage2_tlb.inst_accesses            0                       # ITB inst accesses
system.cpu.itb.stage2_mmu.stage2_tlb.inst_hits            0                       # ITB inst hits
system.cpu.itb.stage2_mmu.stage2_tlb.inst_misses            0                       # ITB inst misses
system.cpu.itb.stage2_mmu.stage2_tlb.misses            0                       # DTB misses
system.cpu.itb.stage2_mmu.stage2_tlb.perms_faults            0                       # Number of TLB faults due to permissions restrictions
system.cpu.itb.stage2_mmu.stage2_tlb.prefetch_faults            0                       # Number of TLB faults due to prefetch
system.cpu.itb.stage2_mmu.stage2_tlb.read_accesses            0                       # DTB read accesses
system.cpu.itb.stage2_mmu.stage2_tlb.read_hits            0                       # DTB read hits
system.cpu.itb.stage2_mmu.stage2_tlb.read_misses            0                       # DTB read misses
system.cpu.itb.stage2_mmu.stage2_tlb.walker.walkRequestOrigin_Requested::Data            0                       # Table walker requests started/completed, data/inst
system.cpu.itb.stage2_mmu.stage2_tlb.walker.walkRequestOrigin_Requested::Inst            0                       # Table walker requests started/completed, data/inst
system.cpu.itb.stage2_mmu.stage2_tlb.walker.walkRequestOrigin_Requested::total            0                       # Table walker requests started/completed, data/inst
system.cpu.itb.stage2_mmu.stage2_tlb.walker.walkRequestOrigin_Completed::Data            0                       # Table walker requests started/completed, data/inst
system.cpu.itb.stage2_mmu.stage2_tlb.walker.walkRequestOrigin_Completed::Inst            0                       # Table walker requests started/completed, data/inst
system.cpu.itb.stage2_mmu.stage2_tlb.walker.walkRequestOrigin_Completed::total            0                       # Table walker requests started/completed, data/inst
system.cpu.itb.stage2_mmu.stage2_tlb.walker.walkRequestOrigin::total            0                       # Table walker requests started/completed, data/inst
system.cpu.itb.stage2_mmu.stage2_tlb.walker.walks            0                       # Table walker walks requested
system.cpu.itb.stage2_mmu.stage2_tlb.write_accesses            0                       # DTB write accesses
system.cpu.itb.stage2_mmu.stage2_tlb.write_hits            0                       # DTB write hits
system.cpu.itb.stage2_mmu.stage2_tlb.write_misses            0                       # DTB write misses
system.cpu.itb.walker.walkRequestOrigin_Requested::Data            0                       # Table walker requests started/completed, data/inst
system.cpu.itb.walker.walkRequestOrigin_Requested::Inst            0                       # Table walker requests started/completed, data/inst
system.cpu.itb.walker.walkRequestOrigin_Requested::total            0                       # Table walker requests started/completed, data/inst
system.cpu.itb.walker.walkRequestOrigin_Completed::Data            0                       # Table walker requests started/completed, data/inst
system.cpu.itb.walker.walkRequestOrigin_Completed::Inst            0                       # Table walker requests started/completed, data/inst
system.cpu.itb.walker.walkRequestOrigin_Completed::total            0                       # Table walker requests started/completed, data/inst
system.cpu.itb.walker.walkRequestOrigin::total            0                       # Table walker requests started/completed, data/inst
system.cpu.itb.walker.walks                         0                       # Table walker walks requested
system.cpu.itb.write_accesses                       0                       # DTB write accesses
system.cpu.itb.write_hits                           0                       # DTB write hits
system.cpu.itb.write_misses                         0                       # DTB write misses
system.cpu.numCycles                        167972741                       # number of cpu cycles simulated
system.cpu.numFetchSuspends                         0                       # Number of times Execute suspended instruction fetching
system.cpu.numWorkItemsCompleted                    0                       # number of work items this cpu completed
system.cpu.numWorkItemsStarted                      0                       # number of work items this cpu started
system.cpu.op_class_0::No_OpClass                   0      0.00%      0.00% # Class of committed instruction
system.cpu.op_class_0::IntAlu                46531400     46.44%     46.44% # Class of committed instruction
system.cpu.op_class_0::IntMult                  20720      0.02%     46.46% # Class of committed instruction
system.cpu.op_class_0::IntDiv                       0      0.00%     46.46% # Class of committed instruction
system.cpu.op_class_0::FloatAdd                     0      0.00%     46.46% # Class of committed instruction
system.cpu.op_class_0::FloatCmp                     0      0.00%     46.46% # Class of committed instruction
system.cpu.op_class_0::FloatCvt                     0      0.00%     46.46% # Class of committed instruction
system.cpu.op_class_0::FloatMult                    0      0.00%     46.46% # Class of committed instruction
system.cpu.op_class_0::FloatMultAcc                 0      0.00%     46.46% # Class of committed instruction
system.cpu.op_class_0::FloatDiv                     0      0.00%     46.46% # Class of committed instruction
system.cpu.op_class_0::FloatMisc                    0      0.00%     46.46% # Class of committed instruction
system.cpu.op_class_0::FloatSqrt                    0      0.00%     46.46% # Class of committed instruction
system.cpu.op_class_0::SimdAdd                      0      0.00%     46.46% # Class of committed instruction
system.cpu.op_class_0::SimdAddAcc                   0      0.00%     46.46% # Class of committed instruction
system.cpu.op_class_0::SimdAlu                      0      0.00%     46.46% # Class of committed instruction
system.cpu.op_class_0::SimdCmp                      0      0.00%     46.46% # Class of committed instruction
system.cpu.op_class_0::SimdCvt                      0      0.00%     46.46% # Class of committed instruction
system.cpu.op_class_0::SimdMisc                     0      0.00%     46.46% # Class of committed instruction
system.cpu.op_class_0::SimdMult                     0      0.00%     46.46% # Class of committed instruction
system.cpu.op_class_0::SimdMultAcc                  0      0.00%     46.46% # Class of committed instruction
system.cpu.op_class_0::SimdShift                    0      0.00%     46.46% # Class of committed instruction
system.cpu.op_class_0::SimdShiftAcc                 0      0.00%     46.46% # Class of committed instruction
system.cpu.op_class_0::SimdDiv                      0      0.00%     46.46% # Class of committed instruction
system.cpu.op_class_0::SimdSqrt                     0      0.00%     46.46% # Class of committed instruction
system.cpu.op_class_0::SimdFloatAdd                 0      0.00%     46.46% # Class of committed instruction
system.cpu.op_class_0::SimdFloatAlu                 0      0.00%     46.46% # Class of committed instruction
system.cpu.op_class_0::SimdFloatCmp                 0      0.00%     46.46% # Class of committed instruction
system.cpu.op_class_0::SimdFloatCvt                 0      0.00%     46.46% # Class of committed instruction
system.cpu.op_class_0::SimdFloatDiv                 0      0.00%     46.46% # Class of committed instruction
system.cpu.op_class_0::SimdFloatMisc               18      0.00%     46.46% # Class of committed instruction
system.cpu.op_class_0::SimdFloatMult                0      0.00%     46.46% # Class of committed instruction
system.cpu.op_class_0::SimdFloatMultAcc             0      0.00%     46.46% # Class of committed instruction
system.cpu.op_class_0::SimdFloatSqrt                0      0.00%     46.46% # Class of committed instruction
system.cpu.op_class_0::SimdReduceAdd                0      0.00%     46.46% # Class of committed instruction
system.cpu.op_class_0::SimdReduceAlu                0      0.00%     46.46% # Class of committed instruction
system.cpu.op_class_0::SimdReduceCmp                0      0.00%     46.46% # Class of committed instruction
system.cpu.op_class_0::SimdFloatReduceAdd            0      0.00%     46.46% # Class of committed instruction
system.cpu.op_class_0::SimdFloatReduceCmp            0      0.00%     46.46% # Class of committed instruction
system.cpu.op_class_0::SimdAes                      0      0.00%     46.46% # Class of committed instruction
system.cpu.op_class_0::SimdAesMix                   0      0.00%     46.46% # Class of committed instruction
system.cpu.op_class_0::SimdSha1Hash                 0      0.00%     46.46% # Class of committed instruction
system.cpu.op_class_0::SimdSha1Hash2                0      0.00%     46.46% # Class of committed instruction
system.cpu.op_class_0::SimdSha256Hash               0      0.00%     46.46% # Class of committed instruction
system.cpu.op_class_0::SimdSha256Hash2              0      0.00%     46.46% # Class of committed instruction
system.cpu.op_class_0::SimdShaSigma2                0      0.00%     46.46% # Class of committed instruction
system.cpu.op_class_0::SimdShaSigma3                0      0.00%     46.46% # Class of committed instruction
system.cpu.op_class_0::SimdPredAlu                  0      0.00%     46.46% # Class of committed instruction
system.cpu.op_class_0::MemRead               42693601     42.61%     89.07% # Class of committed instruction
system.cpu.op_class_0::MemWrite              10950624     10.93%    100.00% # Class of committed instruction
system.cpu.op_class_0::FloatMemRead                 0      0.00%    100.00% # Class of committed instruction
system.cpu.op_class_0::FloatMemWrite                0      0.00%    100.00% # Class of committed instruction
system.cpu.op_class_0::IprAccess                    0      0.00%    100.00% # Class of committed instruction
system.cpu.op_class_0::InstPrefetch                 0      0.00%    100.00% # Class of committed instruction
system.cpu.op_class_0::total                100196363                       # Class of committed instruction
system.cpu.tickCycles                       132701941                       # Number of cycles that the object actually ticked
system.cpu.workload.numSyscalls                    84                       # Number of system calls
system.membus.snoop_filter.hit_multi_requests            0                       # Number of requests hitting in the snoop filter with multiple (>1) holders of the requested data.
system.membus.snoop_filter.hit_multi_snoops            0                       # Number of snoops hitting in the snoop filter with multiple (>1) holders of the requested data.
system.membus.snoop_filter.hit_single_requests       167659                       # Number of requests hitting in the snoop filter with a single holder of the requested data.
system.membus.snoop_filter.hit_single_snoops            0                       # Number of snoops hitting in the snoop filter with a single holder of the requested data.
system.membus.snoop_filter.tot_requests        368616                       # Total number of requests made to the snoop filter.
system.membus.snoop_filter.tot_snoops               0                       # Total number of snoops made to the snoop filter.
system.tol2bus.snoop_filter.hit_multi_requests          120                       # Number of requests hitting in the snoop filter with multiple (>1) holders of the requested data.
system.tol2bus.snoop_filter.hit_multi_snoops            0                       # Number of snoops hitting in the snoop filter with multiple (>1) holders of the requested data.
system.tol2bus.snoop_filter.hit_single_requests       710607                       # Number of requests hitting in the snoop filter with a single holder of the requested data.
system.tol2bus.snoop_filter.hit_single_snoops          569                       # Number of snoops hitting in the snoop filter with a single holder of the requested data.
system.tol2bus.snoop_filter.tot_requests      1422879                       # Total number of requests made to the snoop filter.
system.tol2bus.snoop_filter.tot_snoops            569                       # Total number of snoops made to the snoop filter.
system.membus.pwrStateResidencyTicks::UNDEFINED  83986370500                       # Cumulative time (in ticks) in various power states
system.membus.trans_dist::ReadResp              64850                       # Transaction distribution
system.membus.trans_dist::WritebackDirty       111058                       # Transaction distribution
system.membus.trans_dist::CleanEvict            56593                       # Transaction distribution
system.membus.trans_dist::ReadExReq            136115                       # Transaction distribution
system.membus.trans_dist::ReadExResp           136115                       # Transaction distribution
system.membus.trans_dist::ReadSharedReq         64850                       # Transaction distribution
system.membus.pkt_count_system.l2.mem_side::system.mem_ctrls.port       569581                       # Packet count per connected master and slave (bytes)
system.membus.pkt_count::total                 569581                       # Packet count per connected master and slave (bytes)
system.membus.pkt_size_system.l2.mem_side::system.mem_ctrls.port     19969472                       # Cumulative packet size per connected master and slave (bytes)
system.membus.pkt_size::total                19969472                       # Cumulative packet size per connected master and slave (bytes)
system.membus.snoops                                0                       # Total snoops (count)
system.membus.snoopTraffic                          0                       # Total snoop traffic (bytes)
system.membus.snoop_fanout::samples            200965                       # Request fanout histogram
system.membus.snoop_fanout::mean                    0                       # Request fanout histogram
system.membus.snoop_fanout::stdev                   0                       # Request fanout histogram
system.membus.snoop_fanout::underflows              0      0.00%      0.00% # Request fanout histogram
system.membus.snoop_fanout::0                  200965    100.00%    100.00% # Request fanout histogram
system.membus.snoop_fanout::1                       0      0.00%    100.00% # Request fanout histogram
system.membus.snoop_fanout::overflows               0      0.00%    100.00% # Request fanout histogram
system.membus.snoop_fanout::min_value               0                       # Request fanout histogram
system.membus.snoop_fanout::max_value               0                       # Request fanout histogram
system.membus.snoop_fanout::total              200965                       # Request fanout histogram
system.membus.respLayer1.occupancy         1082443250                       # Layer occupancy (ticks)
system.membus.respLayer1.utilization              1.3                       # Layer utilization (%)
system.membus.reqLayer0.occupancy           854474000                       # Layer occupancy (ticks)
system.membus.reqLayer0.utilization               1.0                       # Layer utilization (%)
system.tol2bus.pwrStateResidencyTicks::UNDEFINED  83986370500                       # Cumulative time (in ticks) in various power states
system.tol2bus.trans_dist::ReadResp            425931                       # Transaction distribution
system.tol2bus.trans_dist::WritebackDirty       746628                       # Transaction distribution
system.tol2bus.trans_dist::WritebackClean           33                       # Transaction distribution
system.tol2bus.trans_dist::CleanEvict          132164                       # Transaction distribution
system.tol2bus.trans_dist::ReadExReq           286343                       # Transaction distribution
system.tol2bus.trans_dist::ReadExResp          286342                       # Transaction distribution
system.tol2bus.trans_dist::ReadCleanReq           677                       # Transaction distribution
system.tol2bus.trans_dist::ReadSharedReq       425254                       # Transaction distribution
system.tol2bus.pkt_count_system.cpu.icache.mem_side::system.l2.cpu_side         1387                       # Packet count per connected master and slave (bytes)
system.tol2bus.pkt_count_system.cpu.dcache.mem_side::system.l2.cpu_side      2133765                       # Packet count per connected master and slave (bytes)
system.tol2bus.pkt_count::total               2135152                       # Packet count per connected master and slave (bytes)
system.tol2bus.pkt_size_system.cpu.icache.mem_side::system.l2.cpu_side        45440                       # Cumulative packet size per connected master and slave (bytes)
system.tol2bus.pkt_size_system.cpu.dcache.mem_side::system.l2.cpu_side     86218624                       # Cumulative packet size per connected master and slave (bytes)
system.tol2bus.pkt_size::total               86264064                       # Cumulative packet size per connected master and slave (bytes)
system.tol2bus.snoops                          168220                       # Total snoops (count)
system.tol2bus.snoopTraffic                   7107712                       # Total snoop traffic (bytes)
system.tol2bus.snoop_fanout::samples           880494                       # Request fanout histogram
system.tol2bus.snoop_fanout::mean            0.000785                       # Request fanout histogram
system.tol2bus.snoop_fanout::stdev           0.028003                       # Request fanout histogram
system.tol2bus.snoop_fanout::underflows             0      0.00%      0.00% # Request fanout histogram
system.tol2bus.snoop_fanout::0                 879803     99.92%     99.92% # Request fanout histogram
system.tol2bus.snoop_fanout::1                    691      0.08%    100.00% # Request fanout histogram
system.tol2bus.snoop_fanout::2                      0      0.00%    100.00% # Request fanout histogram
system.tol2bus.snoop_fanout::overflows              0      0.00%    100.00% # Request fanout histogram
system.tol2bus.snoop_fanout::min_value              0                       # Request fanout histogram
system.tol2bus.snoop_fanout::max_value              1                       # Request fanout histogram
system.tol2bus.snoop_fanout::total             880494                       # Request fanout histogram
system.tol2bus.reqLayer0.occupancy         1347042500                       # Layer occupancy (ticks)
system.tol2bus.reqLayer0.utilization              1.6                       # Layer utilization (%)
system.tol2bus.respLayer1.occupancy        1067395996                       # Layer occupancy (ticks)
system.tol2bus.respLayer1.utilization             1.3                       # Layer utilization (%)
system.tol2bus.respLayer0.occupancy           1015500                       # Layer occupancy (ticks)
system.tol2bus.respLayer0.utilization             0.0                       # Layer utilization (%)
system.voltage_domain.voltage                       1                       # Voltage in Volts
system.clk_domain.clock                          1000                       # Clock period in ticks
system.l2.pwrStateResidencyTicks::UNDEFINED  83986370500                       # Cumulative time (in ticks) in various power states
system.l2.demand_hits::.cpu.inst                   19                       # number of demand (read+write) hits
system.l2.demand_hits::.cpu.data               511285                       # number of demand (read+write) hits
system.l2.demand_hits::total                   511304                       # number of demand (read+write) hits
system.l2.overall_hits::.cpu.inst                  19                       # number of overall hits
system.l2.overall_hits::.cpu.data              511285                       # number of overall hits
system.l2.overall_hits::total                  511304                       # number of overall hits
system.l2.demand_misses::.cpu.inst                658                       # number of demand (read+write) misses
system.l2.demand_misses::.cpu.data             200312                       # number of demand (read+write) misses
system.l2.demand_misses::total                 200970                       # number of demand (read+write) misses
system.l2.overall_misses::.cpu.inst               658                       # number of overall misses
system.l2.overall_misses::.cpu.data            200312                       # number of overall misses
system.l2.overall_misses::total                200970                       # number of overall misses
system.l2.demand_miss_latency::.cpu.inst     51643500                       # number of demand (read+write) miss cycles
system.l2.demand_miss_latency::.cpu.data  16936876000                       # number of demand (read+write) miss cycles
system.l2.demand_miss_latency::total      16988519500                       # number of demand (read+write) miss cycles
system.l2.overall_miss_latency::.cpu.inst     51643500                       # number of overall miss cycles
system.l2.overall_miss_latency::.cpu.data  16936876000                       # number of overall miss cycles
system.l2.overall_miss_latency::total     16988519500                       # number of overall miss cycles
system.l2.demand_accesses::.cpu.inst              677                       # number of demand (read+write) accesses
system.l2.demand_accesses::.cpu.data           711597                       # number of demand (read+write) accesses
system.l2.demand_accesses::total               712274                       # number of demand (read+write) accesses
system.l2.overall_accesses::.cpu.inst             677                       # number of overall (read+write) accesses
system.l2.overall_accesses::.cpu.data          711597                       # number of overall (read+write) accesses
system.l2.overall_accesses::total              712274                       # number of overall (read+write) accesses
system.l2.demand_miss_rate::.cpu.inst        0.971935                       # miss rate for demand accesses
system.l2.demand_miss_rate::.cpu.data        0.281496                       # miss rate for demand accesses
system.l2.demand_miss_rate::total            0.282153                       # miss rate for demand accesses
system.l2.overall_miss_rate::.cpu.inst       0.971935                       # miss rate for overall accesses
system.l2.overall_miss_rate::.cpu.data       0.281496                       # miss rate for overall accesses
system.l2.overall_miss_rate::total           0.282153                       # miss rate for overall accesses
system.l2.demand_avg_miss_latency::.cpu.inst 78485.562310                       # average overall miss latency
system.l2.demand_avg_miss_latency::.cpu.data 84552.478134                       # average overall miss latency
system.l2.demand_avg_miss_latency::total 84532.614321                       # average overall miss latency
system.l2.overall_avg_miss_latency::.cpu.inst 78485.562310                       # average overall miss latency
system.l2.overall_avg_miss_latency::.cpu.data 84552.478134                       # average overall miss latency
system.l2.overall_avg_miss_latency::total 84532.614321                       # average overall miss latency
system.l2.blocked_cycles::no_mshrs                  0                       # number of cycles access was blocked
system.l2.blocked_cycles::no_targets                0                       # number of cycles access was blocked
system.l2.blocked::no_mshrs                         0                       # number of cycles access was blocked
system.l2.blocked::no_targets                       0                       # number of cycles access was blocked
system.l2.avg_blocked_cycles::no_mshrs            nan                       # average number of cycles each access was blocked
system.l2.avg_blocked_cycles::no_targets          nan                       # average number of cycles each access was blocked
system.l2.writebacks::.writebacks              111058                       # number of writebacks
system.l2.writebacks::total                    111058                       # number of writebacks
system.l2.demand_mshr_hits::.cpu.data               4                       # number of demand (read+write) MSHR hits
system.l2.demand_mshr_hits::total                   4                       # number of demand (read+write) MSHR hits
system.l2.overall_mshr_hits::.cpu.data              4                       # number of overall MSHR hits
system.l2.overall_mshr_hits::total                  4                       # number of overall MSHR hits
system.l2.demand_mshr_misses::.cpu.inst           658                       # number of demand (read+write) MSHR misses
system.l2.demand_mshr_misses::.cpu.data        200308                       # number of demand (read+write) MSHR misses
system.l2.demand_mshr_misses::total            200966                       # number of demand (read+write) MSHR misses
system.l2.overall_mshr_misses::.cpu.inst          658                       # number of overall MSHR misses
system.l2.overall_mshr_misses::.cpu.data       200308                       # number of overall MSHR misses
system.l2.overall_mshr_misses::total           200966                       # number of overall MSHR misses
system.l2.demand_mshr_miss_latency::.cpu.inst     45063500                       # number of demand (read+write) MSHR miss cycles
system.l2.demand_mshr_miss_latency::.cpu.data  14933562000                       # number of demand (read+write) MSHR miss cycles
system.l2.demand_mshr_miss_latency::total  14978625500                       # number of demand (read+write) MSHR miss cycles
system.l2.overall_mshr_miss_latency::.cpu.inst     45063500                       # number of overall MSHR miss cycles
system.l2.overall_mshr_miss_latency::.cpu.data  14933562000                       # number of overall MSHR miss cycles
system.l2.overall_mshr_miss_latency::total  14978625500                       # number of overall MSHR miss cycles
system.l2.demand_mshr_miss_rate::.cpu.inst     0.971935                       # mshr miss rate for demand accesses
system.l2.demand_mshr_miss_rate::.cpu.data     0.281491                       # mshr miss rate for demand accesses
system.l2.demand_mshr_miss_rate::total       0.282147                       # mshr miss rate for demand accesses
system.l2.overall_mshr_miss_rate::.cpu.inst     0.971935                       # mshr miss rate for overall accesses
system.l2.overall_mshr_miss_rate::.cpu.data     0.281491                       # mshr miss rate for overall accesses
system.l2.overall_mshr_miss_rate::total      0.282147                       # mshr miss rate for overall accesses
system.l2.demand_avg_mshr_miss_latency::.cpu.inst 68485.562310                       # average overall mshr miss latency
system.l2.demand_avg_mshr_miss_latency::.cpu.data 74552.998382                       # average overall mshr miss latency
system.l2.demand_avg_mshr_miss_latency::total 74533.132470                       # average overall mshr miss latency
system.l2.overall_avg_mshr_miss_latency::.cpu.inst 68485.562310                       # average overall mshr miss latency
system.l2.overall_avg_mshr_miss_latency::.cpu.data 74552.998382                       # average overall mshr miss latency
system.l2.overall_avg_mshr_miss_latency::total 74533.132470                       # average overall mshr miss latency
system.l2.replacements                         168220                       # number of replacements
system.l2.WritebackDirty_hits::.writebacks       635570                       # number of WritebackDirty hits
system.l2.WritebackDirty_hits::total           635570                       # number of WritebackDirty hits
system.l2.WritebackDirty_accesses::.writebacks       635570                       # number of WritebackDirty accesses(hits+misses)
system.l2.WritebackDirty_accesses::total       635570                       # number of WritebackDirty accesses(hits+misses)
system.l2.WritebackClean_hits::.writebacks           33                       # number of WritebackClean hits
system.l2.WritebackClean_hits::total               33                       # number of WritebackClean hits
system.l2.WritebackClean_accesses::.writebacks           33                       # number of WritebackClean accesses(hits+misses)
system.l2.WritebackClean_accesses::total           33                       # number of WritebackClean accesses(hits+misses)
system.l2.ReadExReq_hits::.cpu.data            150227                       # number of ReadExReq hits
system.l2.ReadExReq_hits::total                150227                       # number of ReadExReq hits
system.l2.ReadExReq_misses::.cpu.data          136116                       # number of ReadExReq misses
system.l2.ReadExReq_misses::total              136116                       # number of ReadExReq misses
system.l2.ReadExReq_miss_latency::.cpu.data  11822278500                       # number of ReadExReq miss cycles
system.l2.ReadExReq_miss_latency::total   11822278500                       # number of ReadExReq miss cycles
system.l2.ReadExReq_accesses::.cpu.data        286343                       # number of ReadExReq accesses(hits+misses)
system.l2.ReadExReq_accesses::total            286343                       # number of ReadExReq accesses(hits+misses)
system.l2.ReadExReq_miss_rate::.cpu.data     0.475360                       # miss rate for ReadExReq accesses
system.l2.ReadExReq_miss_rate::total         0.475360                       # miss rate for ReadExReq accesses
system.l2.ReadExReq_avg_miss_latency::.cpu.data 86854.436657                       # average ReadExReq miss latency
system.l2.ReadExReq_avg_miss_latency::total 86854.436657                       # average ReadExReq miss latency
system.l2.ReadExReq_mshr_misses::.cpu.data       136116                       # number of ReadExReq MSHR misses
system.l2.ReadExReq_mshr_misses::total         136116                       # number of ReadExReq MSHR misses
system.l2.ReadExReq_mshr_miss_latency::.cpu.data  10461128500                       # number of ReadExReq MSHR miss cycles
system.l2.ReadExReq_mshr_miss_latency::total  10461128500                       # number of ReadExReq MSHR miss cycles
system.l2.ReadExReq_mshr_miss_rate::.cpu.data     0.475360                       # mshr miss rate for ReadExReq accesses
system.l2.ReadExReq_mshr_miss_rate::total     0.475360                       # mshr miss rate for ReadExReq accesses
system.l2.ReadExReq_avg_mshr_miss_latency::.cpu.data 76854.510124                       # average ReadExReq mshr miss latency
system.l2.ReadExReq_avg_mshr_miss_latency::total 76854.510124                       # average ReadExReq mshr miss latency
system.l2.ReadCleanReq_hits::.cpu.inst             19                       # number of ReadCleanReq hits
system.l2.ReadCleanReq_hits::total                 19                       # number of ReadCleanReq hits
system.l2.ReadCleanReq_misses::.cpu.inst          658                       # number of ReadCleanReq misses
system.l2.ReadCleanReq_misses::total              658                       # number of ReadCleanReq misses
system.l2.ReadCleanReq_miss_latency::.cpu.inst     51643500                       # number of ReadCleanReq miss cycles
system.l2.ReadCleanReq_miss_latency::total     51643500                       # number of ReadCleanReq miss cycles
system.l2.ReadCleanReq_accesses::.cpu.inst          677                       # number of ReadCleanReq accesses(hits+misses)
system.l2.ReadCleanReq_accesses::total            677                       # number of ReadCleanReq accesses(hits+misses)
system.l2.ReadCleanReq_miss_rate::.cpu.inst     0.971935                       # miss rate for ReadCleanReq accesses
system.l2.ReadCleanReq_miss_rate::total      0.971935                       # miss rate for ReadCleanReq accesses
system.l2.ReadCleanReq_avg_miss_latency::.cpu.inst 78485.562310                       # average ReadCleanReq miss latency
system.l2.ReadCleanReq_avg_miss_latency::total 78485.562310                       # average ReadCleanReq miss latency
system.l2.ReadCleanReq_mshr_misses::.cpu.inst          658                       # number of ReadCleanReq MSHR misses
system.l2.ReadCleanReq_mshr_misses::total          658                       # number of ReadCleanReq MSHR misses
system.l2.ReadCleanReq_mshr_miss_latency::.cpu.inst     45063500                       # number of ReadCleanReq MSHR miss cycles
system.l2.ReadCleanReq_mshr_miss_latency::total     45063500                       # number of ReadCleanReq MSHR miss cycles
system.l2.ReadCleanReq_mshr_miss_rate::.cpu.inst     0.971935                       # mshr miss rate for ReadCleanReq accesses
system.l2.ReadCleanReq_mshr_miss_rate::total     0.971935                       # mshr miss rate for ReadCleanReq accesses
system.l2.ReadCleanReq_avg_mshr_miss_latency::.cpu.inst 68485.562310                       # average ReadCleanReq mshr miss latency
system.l2.ReadCleanReq_avg_mshr_miss_latency::total 68485.562310                       # average ReadCleanReq mshr miss latency
system.l2.ReadSharedReq_hits::.cpu.data        361058                       # number of ReadSharedReq hits
system.l2.ReadSharedReq_hits::total            361058                       # number of ReadSharedReq hits
system.l2.ReadSharedReq_misses::.cpu.data        64196                       # number of ReadSharedReq misses
system.l2.ReadSharedReq_misses::total           64196                       # number of ReadSharedReq misses
system.l2.ReadSharedReq_miss_latency::.cpu.data   5114597500                       # number of ReadSharedReq miss cycles
system.l2.ReadSharedReq_miss_latency::total   5114597500                       # number of ReadSharedReq miss cycles
system.l2.ReadSharedReq_accesses::.cpu.data       425254                       # number of ReadSharedReq accesses(hits+misses)
system.l2.ReadSharedReq_accesses::total        425254                       # number of ReadSharedReq accesses(hits+misses)
system.l2.ReadSharedReq_miss_rate::.cpu.data     0.150959                       # miss rate for ReadSharedReq accesses
system.l2.ReadSharedReq_miss_rate::total     0.150959                       # miss rate for ReadSharedReq accesses
system.l2.ReadSharedReq_avg_miss_latency::.cpu.data 79671.591688                       # average ReadSharedReq miss latency
system.l2.ReadSharedReq_avg_miss_latency::total 79671.591688                       # average ReadSharedReq miss latency
system.l2.ReadSharedReq_mshr_hits::.cpu.data            4                       # number of ReadSharedReq MSHR hits
system.l2.ReadSharedReq_mshr_hits::total            4                       # number of ReadSharedReq MSHR hits
system.l2.ReadSharedReq_mshr_misses::.cpu.data        64192                       # number of ReadSharedReq MSHR misses
system.l2.ReadSharedReq_mshr_misses::total        64192                       # number of ReadSharedReq MSHR misses
system.l2.ReadSharedReq_mshr_miss_latency::.cpu.data   4472433500                       # number of ReadSharedReq MSHR miss cycles
system.l2.ReadSharedReq_mshr_miss_latency::total   4472433500                       # number of ReadSharedReq MSHR miss cycles
system.l2.ReadSharedReq_mshr_miss_rate::.cpu.data     0.150950                       # mshr miss rate for ReadSharedReq accesses
system.l2.ReadSharedReq_mshr_miss_rate::total     0.150950                       # mshr miss rate for ReadSharedReq accesses
system.l2.ReadSharedReq_avg_mshr_miss_latency::.cpu.data 69672.755172                       # average ReadSharedReq mshr miss latency
system.l2.ReadSharedReq_avg_mshr_miss_latency::total 69672.755172                       # average ReadSharedReq mshr miss latency
system.l2.tags.pwrStateResidencyTicks::UNDEFINED  83986370500                       # Cumulative time (in ticks) in various power states
system.l2.tags.tagsinuse                 31904.320865                       # Cycle average of tags in use
system.l2.tags.total_refs                     1422754                       # Total number of references to valid blocks.
system.l2.tags.sampled_refs                    200988                       # Sample count of references to valid blocks.
system.l2.tags.avg_refs                      7.078801                       # Average number of references to valid blocks.
system.l2.tags.warmup_cycle                     77000                       # Cycle when the warmup percentage was hit.
system.l2.tags.occ_blocks::.writebacks       8.642727                       # Average occupied blocks per requestor
system.l2.tags.occ_blocks::.cpu.inst        77.566651                       # Average occupied blocks per requestor
system.l2.tags.occ_blocks::.cpu.data     31818.111486                       # Average occupied blocks per requestor
system.l2.tags.occ_percent::.writebacks      0.000264                       # Average percentage of cache occupancy
system.l2.tags.occ_percent::.cpu.inst        0.002367                       # Average percentage of cache occupancy
system.l2.tags.occ_percent::.cpu.data        0.971012                       # Average percentage of cache occupancy
system.l2.tags.occ_percent::total            0.973643                       # Average percentage of cache occupancy
system.l2.tags.occ_task_id_blocks::1024         32768                       # Occupied blocks per task id
system.l2.tags.age_task_id_blocks_1024::0           87                       # Occupied blocks per task id
system.l2.tags.age_task_id_blocks_1024::1          113                       # Occupied blocks per task id
system.l2.tags.age_task_id_blocks_1024::2         1190                       # Occupied blocks per task id
system.l2.tags.age_task_id_blocks_1024::3        15716                       # Occupied blocks per task id
system.l2.tags.age_task_id_blocks_1024::4        15662                       # Occupied blocks per task id
system.l2.tags.occ_task_id_percent::1024            1                       # Percentage of cache occupancy per task id
system.l2.tags.tag_accesses                  11583060                       # Number of tag accesses
system.l2.tags.data_accesses                 11583060                       # Number of data accesses
system.cpu_voltage_domain.voltage                   1                       # Voltage in Volts
system.mem_ctrls.pwrStateResidencyTicks::UNDEFINED  83986370500                       # Cumulative time (in ticks) in various power states
system.mem_ctrls.bytes_read::.cpu.inst          42112                       # Number of bytes read from this memory
system.mem_ctrls.bytes_read::.cpu.data       12819648                       # Number of bytes read from this memory
system.mem_ctrls.bytes_read::total           12861760                       # Number of bytes read from this memory
system.mem_ctrls.bytes_inst_read::.cpu.inst        42112                       # Number of instructions bytes read from this memory
system.mem_ctrls.bytes_inst_read::total         42112                       # Number of instructions bytes read from this memory
system.mem_ctrls.bytes_written::.writebacks      7107712                       # Number of bytes written to this memory
system.mem_ctrls.bytes_written::total         7107712                       # Number of bytes written to this memory
system.mem_ctrls.num_reads::.cpu.inst             658                       # Number of read requests responded to by this memory
system.mem_ctrls.num_reads::.cpu.data          200307                       # Number of read requests responded to by this memory
system.mem_ctrls.num_reads::total              200965                       # Number of read requests responded to by this memory
system.mem_ctrls.num_writes::.writebacks       111058                       # Number of write requests responded to by this memory
system.mem_ctrls.num_writes::total             111058                       # Number of write requests responded to by this memory
system.mem_ctrls.bw_read::.cpu.inst            501415                       # Total read bandwidth from this memory (bytes/s)
system.mem_ctrls.bw_read::.cpu.data         152639624                       # Total read bandwidth from this memory (bytes/s)
system.mem_ctrls.bw_read::total             153141039                       # Total read bandwidth from this memory (bytes/s)
system.mem_ctrls.bw_inst_read::.cpu.inst       501415                       # Instruction read bandwidth from this memory (bytes/s)
system.mem_ctrls.bw_inst_read::total           501415                       # Instruction read bandwidth from this memory (bytes/s)
system.mem_ctrls.bw_write::.writebacks       84629351                       # Write bandwidth from this memory (bytes/s)
system.mem_ctrls.bw_write::total             84629351                       # Write bandwidth from this memory (bytes/s)
system.mem_ctrls.bw_total::.writebacks       84629351                       # Total bandwidth to/from this memory (bytes/s)
system.mem_ctrls.bw_total::.cpu.inst           501415                       # Total bandwidth to/from this memory (bytes/s)
system.mem_ctrls.bw_total::.cpu.data        152639624                       # Total bandwidth to/from this memory (bytes/s)
system.mem_ctrls.bw_total::total            237770389                       # Total bandwidth to/from this memory (bytes/s)
system.mem_ctrls.avgPriority_.writebacks::samples    111058.00                       # Average QoS priority value for accepted requests
system.mem_ctrls.avgPriority_.cpu.inst::samples       658.00                       # Average QoS priority value for accepted requests
system.mem_ctrls.avgPriority_.cpu.data::samples    200272.00                       # Average QoS priority value for accepted requests
system.mem_ctrls.priorityMinLatency      0.000000018750                       # per QoS priority minimum request to response latency (s)
system.mem_ctrls.priorityMaxLatency      0.002998208500                       # per QoS priority maximum request to response latency (s)
system.mem_ctrls.numReadWriteTurnArounds         6641                       # Number of turnarounds from READ to WRITE
system.mem_ctrls.numWriteReadTurnArounds         6641                       # Number of turnarounds from WRITE to READ
system.mem_ctrls.numStayReadState              524115                       # Number of times bus staying in READ state
system.mem_ctrls.numStayWriteState             104529                       # Number of times bus staying in WRITE state
system.mem_ctrls.readReqs                      200965                       # Number of read requests accepted
system.mem_ctrls.writeReqs                     111058                       # Number of write requests accepted
system.mem_ctrls.readBursts                    200965                       # Number of DRAM read bursts, including those serviced by the write queue
system.mem_ctrls.writeBursts                   111058                       # Number of DRAM write bursts, including those merged in the write queue
system.mem_ctrls.servicedByWrQ                     35                       # Number of DRAM read bursts serviced by the write queue
system.mem_ctrls.mergedWrBursts                     0                       # Number of DRAM write bursts merged with an existing one
system.mem_ctrls.neitherReadNorWriteReqs            0                       # Number of requests that are neither read nor write
system.mem_ctrls.perBankRdBursts::0             12825                       # Per bank write bursts
system.mem_ctrls.perBankRdBursts::1             12742                       # Per bank write bursts
system.mem_ctrls.perBankRdBursts::2             12821                       # Per bank write bursts
system.mem_ctrls.perBankRdBursts::3             12533                       # Per bank write bursts
system.mem_ctrls.perBankRdBursts::4             12512                       # Per bank write bursts
system.mem_ctrls.perBankRdBursts::5             12342                       # Per bank write bursts
system.mem_ctrls.perBankRdBursts::6             12295                       # Per bank write bursts
system.mem_ctrls.perBankRdBursts::7             12467                       # Per bank write bursts
system.mem_ctrls.perBankRdBursts::8             12452                       # Per bank write bursts
system.mem_ctrls.perBankRdBursts::9             12400                       # Per bank write bursts
system.mem_ctrls.perBankRdBursts::10            12450                       # Per bank write bursts
system.mem_ctrls.perBankRdBursts::11            12467                       # Per bank write bursts
system.mem_ctrls.perBankRdBursts::12            12637                       # Per bank write bursts
system.mem_ctrls.perBankRdBursts::13            12710                       # Per bank write bursts
system.mem_ctrls.perBankRdBursts::14            12665                       # Per bank write bursts
system.mem_ctrls.perBankRdBursts::15            12612                       # Per bank write bursts
system.mem_ctrls.perBankWrBursts::0              7121                       # Per bank write bursts
system.mem_ctrls.perBankWrBursts::1              7132                       # Per bank write bursts
system.mem_ctrls.perBankWrBursts::2              7160                       # Per bank write bursts
system.mem_ctrls.perBankWrBursts::3              6976                       # Per bank write bursts
system.mem_ctrls.perBankWrBursts::4              6978                       # Per bank write bursts
system.mem_ctrls.perBankWrBursts::5              6932                       # Per bank write bursts
system.mem_ctrls.perBankWrBursts::6              6825                       # Per bank write bursts
system.mem_ctrls.perBankWrBursts::7              6801                       # Per bank write bursts
system.mem_ctrls.perBankWrBursts::8              6794                       # Per bank write bursts
system.mem_ctrls.perBankWrBursts::9              6773                       # Per bank write bursts
system.mem_ctrls.perBankWrBursts::10             6862                       # Per bank write bursts
system.mem_ctrls.perBankWrBursts::11             6810                       # Per bank write bursts
system.mem_ctrls.perBankWrBursts::12             6898                       # Per bank write bursts
system.mem_ctrls.perBankWrBursts::13             6990                       # Per bank write bursts
system.mem_ctrls.perBankWrBursts::14             7008                       # Per bank write bursts
system.mem_ctrls.perBankWrBursts::15             6966                       # Per bank write bursts
system.mem_ctrls.avgRdQLen                       1.08                       # Average read queue length when enqueuing
system.mem_ctrls.avgWrQLen                      24.66                       # Average write queue length when enqueuing
system.mem_ctrls.totQLat                   2919708250                       # Total ticks spent queuing
system.mem_ctrls.totBusLat                 1004650000                       # Total ticks spent in databus transfers
system.mem_ctrls.totMemAccLat              6687145750                       # Total ticks spent from burst creation until serviced by the DRAM
system.mem_ctrls.avgQLat                     14530.97                       # Average queueing delay per DRAM burst
system.mem_ctrls.avgBusLat                    5000.00                       # Average bus latency per DRAM burst
system.mem_ctrls.avgMemAccLat                33280.97                       # Average memory access latency per DRAM burst
system.mem_ctrls.numRdRetry                         0                       # Number of times read queue was full causing retry
system.mem_ctrls.numWrRetry                         0                       # Number of times write queue was full causing retry
system.mem_ctrls.readRowHits                   137929                       # Number of row buffer hits during reads
system.mem_ctrls.writeRowHits                   69769                       # Number of row buffer hits during writes
system.mem_ctrls.readRowHitRate                 68.65                       # Row buffer hit rate for reads
system.mem_ctrls.writeRowHitRate                62.82                       # Row buffer hit rate for writes
system.mem_ctrls.readPktSize::0                     0                       # Read request sizes (log2)
system.mem_ctrls.readPktSize::1                     0                       # Read request sizes (log2)
system.mem_ctrls.readPktSize::2                     0                       # Read request sizes (log2)
system.mem_ctrls.readPktSize::3                     0                       # Read request sizes (log2)
system.mem_ctrls.readPktSize::4                     0                       # Read request sizes (log2)
system.mem_ctrls.readPktSize::5                     0                       # Read request sizes (log2)
system.mem_ctrls.readPktSize::6                200965                       # Read request sizes (log2)
system.mem_ctrls.writePktSize::0                    0                       # Write request sizes (log2)
system.mem_ctrls.writePktSize::1                    0                       # Write request sizes (log2)
system.mem_ctrls.writePktSize::2                    0                       # Write request sizes (log2)
system.mem_ctrls.writePktSize::3                    0                       # Write request sizes (log2)
system.mem_ctrls.writePktSize::4                    0                       # Write request sizes (log2)
system.mem_ctrls.writePktSize::5                    0                       # Write request sizes (log2)
system.mem_ctrls.writePktSize::6               111058                       # Write request sizes (log2)
system.mem_ctrls.rdQLenPdf::0                  139641                       # What read queue length does an incoming req see
system.mem_ctrls.rdQLenPdf::1                   58648                       # What read queue length does an incoming req see
system.mem_ctrls.rdQLenPdf::2                    2338                       # What read queue length does an incoming req see
system.mem_ctrls.rdQLenPdf::3                     302                       # What read queue length does an incoming req see
system.mem_ctrls.rdQLenPdf::4                       1                       # What read queue length does an incoming req see
system.mem_ctrls.rdQLenPdf::5                       0                       # What read queue length does an incoming req see
system.mem_ctrls.rdQLenPdf::6                       0                       # What read queue length does an incoming req see
system.mem_ctrls.rdQLenPdf::7                       0                       # What read queue length does an incoming req see
system.mem_ctrls.rdQLenPdf::8                       0                       # What read queue length does an incoming req see
system.mem_ctrls.rdQLenPdf::9                       0                       # What read queue length does an incoming req see
system.mem_ctrls.rdQLenPdf::10                      0                       # What read queue length does an incoming req see
system.mem_ctrls.rdQLenPdf::11                      0                       # What read queue length does an incoming req see
system.mem_ctrls.rdQLenPdf::12                      0                       # What read queue length does an incoming req see
system.mem_ctrls.rdQLenPdf::13                      0                       # What read queue length does an incoming req see
system.mem_ctrls.rdQLenPdf::14                      0                       # What read queue length does an incoming req see
system.mem_ctrls.rdQLenPdf::15                      0                       # What read queue length does an incoming req see
system.mem_ctrls.rdQLenPdf::16                      0                       # What read queue length does an incoming req see
system.mem_ctrls.rdQLenPdf::17                      0                       # What read queue length does an incoming req see
system.mem_ctrls.rdQLenPdf::18                      0                       # What read queue length does an incoming req see
system.mem_ctrls.rdQLenPdf::19                      0                       # What read queue length does an incoming req see
system.mem_ctrls.rdQLenPdf::20                      0                       # What read queue length does an incoming req see
system.mem_ctrls.rdQLenPdf::21                      0                       # What read queue length does an incoming req see
system.mem_ctrls.rdQLenPdf::22                      0                       # What read queue length does an incoming req see
system.mem_ctrls.rdQLenPdf::23                      0                       # What read queue length does an incoming req see
system.mem_ctrls.rdQLenPdf::24                      0                       # What read queue length does an incoming req see
system.mem_ctrls.rdQLenPdf::25                      0                       # What read queue length does an incoming req see
system.mem_ctrls.rdQLenPdf::26                      0                       # What read queue length does an incoming req see
system.mem_ctrls.rdQLenPdf::27                      0                       # What read queue length does an incoming req see
system.mem_ctrls.rdQLenPdf::28                      0                       # What read queue length does an incoming req see
system.mem_ctrls.rdQLenPdf::29                      0                       # What read queue length does an incoming req see
system.mem_ctrls.rdQLenPdf::30                      0                       # What read queue length does an incoming req see
system.mem_ctrls.rdQLenPdf::31                      0                       # What read queue length does an incoming req see
system.mem_ctrls.wrQLenPdf::0                       1                       # What write queue length does an incoming req see
system.mem_ctrls.wrQLenPdf::1                       1                       # What write queue length does an incoming req see
system.mem_ctrls.wrQLenPdf::2                       1                       # What write queue length does an incoming req see
system.mem_ctrls.wrQLenPdf::3                       1                       # What write queue length does an incoming req see
system.mem_ctrls.wrQLenPdf::4                       1                       # What write queue length does an incoming req see
system.mem_ctrls.wrQLenPdf::5                       1                       # What write queue length does an incoming req see
system.mem_ctrls.wrQLenPdf::6                       1                       # What write queue length does an incoming req see
system.mem_ctrls.wrQLenPdf::7                       1                       # What write queue length does an incoming req see
system.mem_ctrls.wrQLenPdf::8                       1                       # What write queue length does an incoming req see
system.mem_ctrls.wrQLenPdf::9                       1                       # What write queue length does an incoming req see
system.mem_ctrls.wrQLenPdf::10                      1                       # What write queue length does an incoming req see
system.mem_ctrls.wrQLenPdf::11                      1                       # What write queue length does an incoming req see
system.mem_ctrls.wrQLenPdf::12                      1                       # What write queue length does an incoming req see
system.mem_ctrls.wrQLenPdf::13                      1                       # What write queue length does an incoming req see
system.mem_ctrls.wrQLenPdf::14                      1                       # What write queue length does an incoming req see
system.mem_ctrls.wrQLenPdf::15                   2251                       # What write queue length does an incoming req see
system.mem_ctrls.wrQLenPdf::16                   2294                       # What write queue length does an incoming req see
system.mem_ctrls.wrQLenPdf::17                   5532                       # What write queue length does an incoming req see
system.mem_ctrls.wrQLenPdf::18                   6670                       # What write queue length does an incoming req see
system.mem_ctrls.wrQLenPdf::19                   6711                       # What write queue length does an incoming req see
system.mem_ctrls.wrQLenPdf::20                   6777                       # What write queue length does an incoming req see
system.mem_ctrls.wrQLenPdf::21                   6699                       # What write queue length does an incoming req see
system.mem_ctrls.wrQLenPdf::22                   6741                       # What write queue length does an incoming req see
system.mem_ctrls.wrQLenPdf::23                   6697                       # What write queue length does an incoming req see
system.mem_ctrls.wrQLenPdf::24                   6712                       # What write queue length does an incoming req see
system.mem_ctrls.wrQLenPdf::25                   6822                       # What write queue length does an incoming req see
system.mem_ctrls.wrQLenPdf::26                   6766                       # What write queue length does an incoming req see
system.mem_ctrls.wrQLenPdf::27                   6676                       # What write queue length does an incoming req see
system.mem_ctrls.wrQLenPdf::28                   7039                       # What write queue length does an incoming req see
system.mem_ctrls.wrQLenPdf::29                   6700                       # What write queue length does an incoming req see
system.mem_ctrls.wrQLenPdf::30                   6655                       # What write queue length does an incoming req see
system.mem_ctrls.wrQLenPdf::31                   6654                       # What write queue length does an incoming req see
system.mem_ctrls.wrQLenPdf::32                   6641                       # What write queue length does an incoming req see
system.mem_ctrls.wrQLenPdf::33                      6                       # What write queue length does an incoming req see
system.mem_ctrls.wrQLenPdf::34                      0                       # What write queue length does an incoming req see
system.mem_ctrls.wrQLenPdf::35                      0                       # What write queue length does an incoming req see
system.mem_ctrls.wrQLenPdf::36                      0                       # What write queue length does an incoming req see
system.mem_ctrls.wrQLenPdf::37                      0                       # What write queue length does an incoming req see
system.mem_ctrls.wrQLenPdf::38                      0                       # What write queue length does an incoming req see
system.mem_ctrls.wrQLenPdf::39                      0                       # What write queue length does an incoming req see
system.mem_ctrls.wrQLenPdf::40                      0                       # What write queue length does an incoming req see
system.mem_ctrls.wrQLenPdf::41                      0                       # What write queue length does an incoming req see
system.mem_ctrls.wrQLenPdf::42                      0                       # What write queue length does an incoming req see
system.mem_ctrls.wrQLenPdf::43                      0                       # What write queue length does an incoming req see
system.mem_ctrls.wrQLenPdf::44                      0                       # What write queue length does an incoming req see
system.mem_ctrls.wrQLenPdf::45                      0                       # What write queue length does an incoming req see
system.mem_ctrls.wrQLenPdf::46                      0                       # What write queue length does an incoming req see
system.mem_ctrls.wrQLenPdf::47                      0                       # What write queue length does an incoming req see
system.mem_ctrls.wrQLenPdf::48                      0                       # What write queue length does an incoming req see
system.mem_ctrls.wrQLenPdf::49                      0                       # What write queue length does an incoming req see
system.mem_ctrls.wrQLenPdf::50                      0                       # What write queue length does an incoming req see
system.mem_ctrls.wrQLenPdf::51                      0                       # What write queue length does an incoming req see
system.mem_ctrls.wrQLenPdf::52                      0                       # What write queue length does an incoming req see
system.mem_ctrls.wrQLenPdf::53                      0                       # What write queue length does an incoming req see
system.mem_ctrls.wrQLenPdf::54                      0                       # What write queue length does an incoming req see
system.mem_ctrls.wrQLenPdf::55                      0                       # What write queue length does an incoming req see
system.mem_ctrls.wrQLenPdf::56                      0                       # What write queue length does an incoming req see
system.mem_ctrls.wrQLenPdf::57                      0                       # What write queue length does an incoming req see
system.mem_ctrls.wrQLenPdf::58                      0                       # What write queue length does an incoming req see
system.mem_ctrls.wrQLenPdf::59                      0                       # What write queue length does an incoming req see
system.mem_ctrls.wrQLenPdf::60                      0                       # What write queue length does an incoming req see
system.mem_ctrls.wrQLenPdf::61                      0                       # What write queue length does an incoming req see
system.mem_ctrls.wrQLenPdf::62                      0                       # What write queue length does an incoming req see
system.mem_ctrls.wrQLenPdf::63                      0                       # What write queue length does an incoming req see
system.mem_ctrls.bytesPerActivate::samples       104244                       # Bytes accessed per row activation
system.mem_ctrls.bytesPerActivate::mean    191.514370                       # Bytes accessed per row activation
system.mem_ctrls.bytesPerActivate::gmean   111.632138                       # Bytes accessed per row activation
system.mem_ctrls.bytesPerActivate::stdev   256.234805                       # Bytes accessed per row activation
system.mem_ctrls.bytesPerActivate::0-127        69013     66.20%     66.20% # Bytes accessed per row activation
system.mem_ctrls.bytesPerActivate::128-255        14015     13.44%     79.65% # Bytes accessed per row activation
system.mem_ctrls.bytesPerActivate::256-383         2589      2.48%     82.13% # Bytes accessed per row activation
system.mem_ctrls.bytesPerActivate::384-511         1366      1.31%     83.44% # Bytes accessed per row activation
system.mem_ctrls.bytesPerActivate::512-639         9744      9.35%     92.79% # Bytes accessed per row activation
system.mem_ctrls.bytesPerActivate::640-767          998      0.96%     93.75% # Bytes accessed per row activation
system.mem_ctrls.bytesPerActivate::768-895          496      0.48%     94.22% # Bytes accessed per row activation
system.mem_ctrls.bytesPerActivate::896-1023          349      0.33%     94.56% # Bytes accessed per row activation
system.mem_ctrls.bytesPerActivate::1024-1151         5674      5.44%    100.00% # Bytes accessed per row activation
system.mem_ctrls.bytesPerActivate::total       104244                       # Bytes accessed per row activation
system.mem_ctrls.rdPerTurnAround::samples         6641                       # Reads before turning the bus around for writes
system.mem_ctrls.rdPerTurnAround::mean      30.253576                       # Reads before turning the bus around for writes
system.mem_ctrls.rdPerTurnAround::gmean     23.759969                       # Reads before turning the bus around for writes
system.mem_ctrls.rdPerTurnAround::stdev     52.405645                       # Reads before turning the bus around for writes
system.mem_ctrls.rdPerTurnAround::0-127          6478     97.55%     97.55% # Reads before turning the bus around for writes
system.mem_ctrls.rdPerTurnAround::128-255           30      0.45%     98.00% # Reads before turning the bus around for writes
system.mem_ctrls.rdPerTurnAround::256-383          130      1.96%     99.95% # Reads before turning the bus around for writes
system.mem_ctrls.rdPerTurnAround::512-639            1      0.02%     99.97% # Reads before turning the bus around for writes
system.mem_ctrls.rdPerTurnAround::1664-1791            1      0.02%     99.98% # Reads before turning the bus around for writes
system.mem_ctrls.rdPerTurnAround::2432-2559            1      0.02%    100.00% # Reads before turning the bus around for writes
system.mem_ctrls.rdPerTurnAround::total          6641                       # Reads before turning the bus around for writes
system.mem_ctrls.wrPerTurnAround::samples         6641                       # Writes before turning the bus around for reads
system.mem_ctrls.wrPerTurnAround::mean      16.718265                       # Writes before turning the bus around for reads
[...]
system.cpu.icache.ReadReq_avg_miss_latency::total 79104.874446                       # average ReadReq miss latency
system.cpu.icache.ReadReq_mshr_misses::.cpu.inst          677                       # number of ReadReq MSHR misses
system.cpu.icache.ReadReq_mshr_misses::total          677                       # number of ReadReq MSHR misses
system.cpu.icache.ReadReq_mshr_miss_latency::.cpu.inst     52877000                       # number of ReadReq MSHR miss cycles
system.cpu.icache.ReadReq_mshr_miss_latency::total     52877000                       # number of ReadReq MSHR miss cycles
system.cpu.icache.ReadReq_mshr_miss_rate::.cpu.inst     0.000070                       # mshr miss rate for ReadReq accesses
system.cpu.icache.ReadReq_mshr_miss_rate::total     0.000070                       # mshr miss rate for ReadReq accesses
system.cpu.icache.ReadReq_avg_mshr_miss_latency::.cpu.inst 78104.874446                       # average ReadReq mshr miss latency
system.cpu.icache.ReadReq_avg_mshr_miss_latency::total 78104.874446                       # average ReadReq mshr miss latency
system.cpu.icache.tags.pwrStateResidencyTicks::UNDEFINED  83986370500                       # Cumulative time (in ticks) in various power states
system.cpu.icache.tags.tagsinuse           519.289319                       # Cycle average of tags in use
system.cpu.icache.tags.total_refs             9663503                       # Total number of references to valid blocks.
system.cpu.icache.tags.sampled_refs               677                       # Sample count of references to valid blocks.
system.cpu.icache.tags.avg_refs          14274.007386                       # Average number of references to valid blocks.
system.cpu.icache.tags.warmup_cycle             87500                       # Cycle when the warmup percentage was hit.
system.cpu.icache.tags.occ_blocks::.cpu.inst   519.289319                       # Average occupied blocks per requestor
system.cpu.icache.tags.occ_percent::.cpu.inst     0.253559                       # Average percentage of cache occupancy
system.cpu.icache.tags.occ_percent::total     0.253559                       # Average percentage of cache occupancy
system.cpu.icache.tags.occ_task_id_blocks::1024          644                       # Occupied blocks per task id
system.cpu.icache.tags.age_task_id_blocks_1024::3          106                       # Occupied blocks per task id
system.cpu.icache.tags.age_task_id_blocks_1024::4          538                       # Occupied blocks per task id
system.cpu.icache.tags.occ_task_id_percent::1024     0.314453                       # Percentage of cache occupancy per task id
system.cpu.icache.tags.tag_accesses          19327683                       # Number of tag accesses
system.cpu.icache.tags.data_accesses         19327683                       # Number of data accesses
system.cpu.dtb.walker.pwrStateResidencyTicks::UNDEFINED  83986370500                       # Cumulative time (in ticks) in various power states
system.cpu.dtb.stage2_mmu.stage2_tlb.walker.pwrStateResidencyTicks::UNDEFINED  83986370500                       # Cumulative time (in ticks) in various power states
system.cpu.dcache.pwrStateResidencyTicks::UNDEFINED  83986370500                       # Cumulative time (in ticks) in various power states
system.cpu.dcache.demand_hits::.cpu.data     51305851                       # number of demand (read+write) hits
system.cpu.dcache.demand_hits::total         51305851                       # number of demand (read+write) hits
system.cpu.dcache.overall_hits::.cpu.data     51306354                       # number of overall hits
system.cpu.dcache.overall_hits::total        51306354                       # number of overall hits
system.cpu.dcache.demand_misses::.cpu.data       762746                       # number of demand (read+write) misses
system.cpu.dcache.demand_misses::total         762746                       # number of demand (read+write) misses
system.cpu.dcache.overall_misses::.cpu.data       770658                       # number of overall misses
system.cpu.dcache.overall_misses::total        770658                       # number of overall misses
system.cpu.dcache.demand_miss_latency::.cpu.data  25025909000                       # number of demand (read+write) miss cycles
system.cpu.dcache.demand_miss_latency::total  25025909000                       # number of demand (read+write) miss cycles
system.cpu.dcache.overall_miss_latency::.cpu.data  25025909000                       # number of overall miss cycles
system.cpu.dcache.overall_miss_latency::total  25025909000                       # number of overall miss cycles
system.cpu.dcache.demand_accesses::.cpu.data     52068597                       # number of demand (read+write) accesses
system.cpu.dcache.demand_accesses::total     52068597                       # number of demand (read+write) accesses
system.cpu.dcache.overall_accesses::.cpu.data     52077012                       # number of overall (read+write) accesses
system.cpu.dcache.overall_accesses::total     52077012                       # number of overall (read+write) accesses
system.cpu.dcache.demand_miss_rate::.cpu.data     0.014649                       # miss rate for demand accesses
system.cpu.dcache.demand_miss_rate::total     0.014649                       # miss rate for demand accesses
system.cpu.dcache.overall_miss_rate::.cpu.data     0.014798                       # miss rate for overall accesses
system.cpu.dcache.overall_miss_rate::total     0.014798                       # miss rate for overall accesses
system.cpu.dcache.demand_avg_miss_latency::.cpu.data 32810.278913                       # average overall miss latency
system.cpu.dcache.demand_avg_miss_latency::total 32810.278913                       # average overall miss latency
system.cpu.dcache.overall_avg_miss_latency::.cpu.data 32473.430497                       # average overall miss latency
system.cpu.dcache.overall_avg_miss_latency::total 32473.430497                       # average overall miss latency
system.cpu.dcache.blocked_cycles::no_mshrs       201569                       # number of cycles access was blocked
system.cpu.dcache.blocked_cycles::no_targets            0                       # number of cycles access was blocked
system.cpu.dcache.blocked::no_mshrs              3250                       # number of cycles access was blocked
system.cpu.dcache.blocked::no_targets               0                       # number of cycles access was blocked
system.cpu.dcache.avg_blocked_cycles::no_mshrs    62.021231                       # average number of cycles each access was blocked
system.cpu.dcache.avg_blocked_cycles::no_targets          nan                       # average number of cycles each access was blocked
system.cpu.dcache.writebacks::.writebacks       635570                       # number of writebacks
system.cpu.dcache.writebacks::total            635570                       # number of writebacks
system.cpu.dcache.demand_mshr_hits::.cpu.data        59055                       # number of demand (read+write) MSHR hits
system.cpu.dcache.demand_mshr_hits::total        59055                       # number of demand (read+write) MSHR hits
system.cpu.dcache.overall_mshr_hits::.cpu.data        59055                       # number of overall MSHR hits
system.cpu.dcache.overall_mshr_hits::total        59055                       # number of overall MSHR hits
system.cpu.dcache.demand_mshr_misses::.cpu.data       703691                       # number of demand (read+write) MSHR misses
system.cpu.dcache.demand_mshr_misses::total       703691                       # number of demand (read+write) MSHR misses
system.cpu.dcache.overall_mshr_misses::.cpu.data       711597                       # number of overall MSHR misses
system.cpu.dcache.overall_mshr_misses::total       711597                       # number of overall MSHR misses
system.cpu.dcache.demand_mshr_miss_latency::.cpu.data  22710263000                       # number of demand (read+write) MSHR miss cycles
system.cpu.dcache.demand_mshr_miss_latency::total  22710263000                       # number of demand (read+write) MSHR miss cycles
system.cpu.dcache.overall_mshr_miss_latency::.cpu.data  23377735499                       # number of overall MSHR miss cycles
system.cpu.dcache.overall_mshr_miss_latency::total  23377735499                       # number of overall MSHR miss cycles
system.cpu.dcache.demand_mshr_miss_rate::.cpu.data     0.013515                       # mshr miss rate for demand accesses
system.cpu.dcache.demand_mshr_miss_rate::total     0.013515                       # mshr miss rate for demand accesses
system.cpu.dcache.overall_mshr_miss_rate::.cpu.data     0.013664                       # mshr miss rate for overall accesses
system.cpu.dcache.overall_mshr_miss_rate::total     0.013664                       # mshr miss rate for overall accesses
system.cpu.dcache.demand_avg_mshr_miss_latency::.cpu.data 32273.061614                       # average overall mshr miss latency
system.cpu.dcache.demand_avg_mshr_miss_latency::total 32273.061614                       # average overall mshr miss latency
system.cpu.dcache.overall_avg_mshr_miss_latency::.cpu.data 32852.493053                       # average overall mshr miss latency
system.cpu.dcache.overall_avg_mshr_miss_latency::total 32852.493053                       # average overall mshr miss latency
system.cpu.dcache.replacements                 710572                       # number of replacements
system.cpu.dcache.ReadReq_hits::.cpu.data     40700537                       # number of ReadReq hits
system.cpu.dcache.ReadReq_hits::total        40700537                       # number of ReadReq hits
system.cpu.dcache.ReadReq_misses::.cpu.data       417959                       # number of ReadReq misses
system.cpu.dcache.ReadReq_misses::total        417959                       # number of ReadReq misses
system.cpu.dcache.ReadReq_miss_latency::.cpu.data   9321115500                       # number of ReadReq miss cycles
system.cpu.dcache.ReadReq_miss_latency::total   9321115500                       # number of ReadReq miss cycles
system.cpu.dcache.ReadReq_accesses::.cpu.data     41118496                       # number of ReadReq accesses(hits+misses)
system.cpu.dcache.ReadReq_accesses::total     41118496                       # number of ReadReq accesses(hits+misses)
system.cpu.dcache.ReadReq_miss_rate::.cpu.data     0.010165                       # miss rate for ReadReq accesses
system.cpu.dcache.ReadReq_miss_rate::total     0.010165                       # miss rate for ReadReq accesses
system.cpu.dcache.ReadReq_avg_miss_latency::.cpu.data 22301.506846                       # average ReadReq miss latency
system.cpu.dcache.ReadReq_avg_miss_latency::total 22301.506846                       # average ReadReq miss latency
system.cpu.dcache.ReadReq_mshr_hits::.cpu.data          611                       # number of ReadReq MSHR hits
system.cpu.dcache.ReadReq_mshr_hits::total          611                       # number of ReadReq MSHR hits
system.cpu.dcache.ReadReq_mshr_misses::.cpu.data       417348                       # number of ReadReq MSHR misses
system.cpu.dcache.ReadReq_mshr_misses::total       417348                       # number of ReadReq MSHR misses
system.cpu.dcache.ReadReq_mshr_miss_latency::.cpu.data   8879345000                       # number of ReadReq MSHR miss cycles
system.cpu.dcache.ReadReq_mshr_miss_latency::total   8879345000                       # number of ReadReq MSHR miss cycles
system.cpu.dcache.ReadReq_mshr_miss_rate::.cpu.data     0.010150                       # mshr miss rate for ReadReq accesses
system.cpu.dcache.ReadReq_mshr_miss_rate::total     0.010150                       # mshr miss rate for ReadReq accesses
system.cpu.dcache.ReadReq_avg_mshr_miss_latency::.cpu.data 21275.638077                       # average ReadReq mshr miss latency
system.cpu.dcache.ReadReq_avg_mshr_miss_latency::total 21275.638077                       # average ReadReq mshr miss latency
system.cpu.dcache.WriteReq_hits::.cpu.data     10605314                       # number of WriteReq hits
system.cpu.dcache.WriteReq_hits::total       10605314                       # number of WriteReq hits
system.cpu.dcache.WriteReq_misses::.cpu.data       344787                       # number of WriteReq misses
system.cpu.dcache.WriteReq_misses::total       344787                       # number of WriteReq misses
system.cpu.dcache.WriteReq_miss_latency::.cpu.data  15704793500                       # number of WriteReq miss cycles
system.cpu.dcache.WriteReq_miss_latency::total  15704793500                       # number of WriteReq miss cycles
system.cpu.dcache.WriteReq_accesses::.cpu.data     10950101                       # number of WriteReq accesses(hits+misses)
system.cpu.dcache.WriteReq_accesses::total     10950101                       # number of WriteReq accesses(hits+misses)
system.cpu.dcache.WriteReq_miss_rate::.cpu.data     0.031487                       # miss rate for WriteReq accesses
system.cpu.dcache.WriteReq_miss_rate::total     0.031487                       # miss rate for WriteReq accesses
system.cpu.dcache.WriteReq_avg_miss_latency::.cpu.data 45549.262298                       # average WriteReq miss latency
system.cpu.dcache.WriteReq_avg_miss_latency::total 45549.262298                       # average WriteReq miss latency
system.cpu.dcache.WriteReq_mshr_hits::.cpu.data        58444                       # number of WriteReq MSHR hits
system.cpu.dcache.WriteReq_mshr_hits::total        58444                       # number of WriteReq MSHR hits
system.cpu.dcache.WriteReq_mshr_misses::.cpu.data       286343                       # number of WriteReq MSHR misses
system.cpu.dcache.WriteReq_mshr_misses::total       286343                       # number of WriteReq MSHR misses
system.cpu.dcache.WriteReq_mshr_miss_latency::.cpu.data  13830918000                       # number of WriteReq MSHR miss cycles
system.cpu.dcache.WriteReq_mshr_miss_latency::total  13830918000                       # number of WriteReq MSHR miss cycles
system.cpu.dcache.WriteReq_mshr_miss_rate::.cpu.data     0.026150                       # mshr miss rate for WriteReq accesses
system.cpu.dcache.WriteReq_mshr_miss_rate::total     0.026150                       # mshr miss rate for WriteReq accesses
system.cpu.dcache.WriteReq_avg_mshr_miss_latency::.cpu.data 48301.924615                       # average WriteReq mshr miss latency
system.cpu.dcache.WriteReq_avg_mshr_miss_latency::total 48301.924615                       # average WriteReq mshr miss latency
system.cpu.dcache.SoftPFReq_hits::.cpu.data          503                       # number of SoftPFReq hits
system.cpu.dcache.SoftPFReq_hits::total           503                       # number of SoftPFReq hits
system.cpu.dcache.SoftPFReq_misses::.cpu.data         7912                       # number of SoftPFReq misses
system.cpu.dcache.SoftPFReq_misses::total         7912                       # number of SoftPFReq misses
system.cpu.dcache.SoftPFReq_accesses::.cpu.data         8415                       # number of SoftPFReq accesses(hits+misses)
system.cpu.dcache.SoftPFReq_accesses::total         8415                       # number of SoftPFReq accesses(hits+misses)
system.cpu.dcache.SoftPFReq_miss_rate::.cpu.data     0.940226                       # miss rate for SoftPFReq accesses
system.cpu.dcache.SoftPFReq_miss_rate::total     0.940226                       # miss rate for SoftPFReq accesses
system.cpu.dcache.SoftPFReq_mshr_misses::.cpu.data         7906                       # number of SoftPFReq MSHR misses
system.cpu.dcache.SoftPFReq_mshr_misses::total         7906                       # number of SoftPFReq MSHR misses
system.cpu.dcache.SoftPFReq_mshr_miss_latency::.cpu.data    667472499                       # number of SoftPFReq MSHR miss cycles
system.cpu.dcache.SoftPFReq_mshr_miss_latency::total    667472499                       # number of SoftPFReq MSHR miss cycles
system.cpu.dcache.SoftPFReq_mshr_miss_rate::.cpu.data     0.939513                       # mshr miss rate for SoftPFReq accesses
system.cpu.dcache.SoftPFReq_mshr_miss_rate::total     0.939513                       # mshr miss rate for SoftPFReq accesses
system.cpu.dcache.SoftPFReq_avg_mshr_miss_latency::.cpu.data 84426.068682                       # average SoftPFReq mshr miss latency
system.cpu.dcache.SoftPFReq_avg_mshr_miss_latency::total 84426.068682                       # average SoftPFReq mshr miss latency
system.cpu.dcache.LoadLockedReq_hits::.cpu.data           38                       # number of LoadLockedReq hits
system.cpu.dcache.LoadLockedReq_hits::total           38                       # number of LoadLockedReq hits
system.cpu.dcache.LoadLockedReq_accesses::.cpu.data           38                       # number of LoadLockedReq accesses(hits+misses)
system.cpu.dcache.LoadLockedReq_accesses::total           38                       # number of LoadLockedReq accesses(hits+misses)
system.cpu.dcache.StoreCondReq_hits::.cpu.data           38                       # number of StoreCondReq hits
system.cpu.dcache.StoreCondReq_hits::total           38                       # number of StoreCondReq hits
system.cpu.dcache.StoreCondReq_accesses::.cpu.data           38                       # number of StoreCondReq accesses(hits+misses)
system.cpu.dcache.StoreCondReq_accesses::total           38                       # number of StoreCondReq accesses(hits+misses)
system.cpu.dcache.tags.pwrStateResidencyTicks::UNDEFINED  83986370500                       # Cumulative time (in ticks) in various power states
system.cpu.dcache.tags.tagsinuse          1008.163120                       # Cycle average of tags in use
system.cpu.dcache.tags.total_refs            52018026                       # Total number of references to valid blocks.
system.cpu.dcache.tags.sampled_refs            711596                       # Sample count of references to valid blocks.
system.cpu.dcache.tags.avg_refs             73.100504                       # Average number of references to valid blocks.
system.cpu.dcache.tags.warmup_cycle            176500                       # Cycle when the warmup percentage was hit.
system.cpu.dcache.tags.occ_blocks::.cpu.data  1008.163120                       # Average occupied blocks per requestor
system.cpu.dcache.tags.occ_percent::.cpu.data     0.984534                       # Average percentage of cache occupancy
system.cpu.dcache.tags.occ_percent::total     0.984534                       # Average percentage of cache occupancy
system.cpu.dcache.tags.occ_task_id_blocks::1024         1024                       # Occupied blocks per task id
system.cpu.dcache.tags.age_task_id_blocks_1024::0          235                       # Occupied blocks per task id
system.cpu.dcache.tags.age_task_id_blocks_1024::1          437                       # Occupied blocks per task id
system.cpu.dcache.tags.age_task_id_blocks_1024::2          350                       # Occupied blocks per task id
system.cpu.dcache.tags.age_task_id_blocks_1024::3            2                       # Occupied blocks per task id
system.cpu.dcache.tags.occ_task_id_percent::1024            1                       # Percentage of cache occupancy per task id
system.cpu.dcache.tags.tag_accesses         104865772                       # Number of tag accesses
system.cpu.dcache.tags.data_accesses        104865772                       # Number of data accesses
system.cpu.itb.walker.pwrStateResidencyTicks::UNDEFINED  83986370500                       # Cumulative time (in ticks) in various power states
system.cpu.itb.stage2_mmu.stage2_tlb.walker.pwrStateResidencyTicks::UNDEFINED  83986370500                       # Cumulative time (in ticks) in various power states

---------- End Simulation Statistics   ----------
