
---------- Begin Simulation Statistics ----------
final_tick                                80360784500                       # Number of ticks from beginning of simulation (restored from checkpoints and never reset)
host_inst_rate                                 297628                       # Simulator instruction rate (inst/s)
host_mem_usage                                 693808                       # Number of bytes of host memory used
host_op_rate                                   298212                       # Simulator op (including micro ops) rate (op/s)
host_seconds                                   335.99                       # Real time elapsed on the host
host_tick_rate                              239176041                       # Simulator tick rate (ticks/s)
sim_freq                                 1000000000000                       # Frequency of simulated ticks
sim_insts                                   100000001                       # Number of instructions simulated
sim_ops                                     100196363                       # Number of ops (including micro ops) simulated
sim_seconds                                  0.080361                       # Number of seconds simulated
sim_ticks                                 80360784500                       # Number of ticks simulated
system.cpu.branchPred.BTBCorrect                    0                       # Number of correct BTB predictions (this stat may not work properly.
system.cpu.branchPred.BTBHitPct             99.616953                       # BTB Hit Percentage
system.cpu.branchPred.BTBHits                 2095601                       # Number of BTB hits
system.cpu.branchPred.BTBLookups              2103659                       # Number of BTB lookups
system.cpu.branchPred.RASInCorrect                  5                       # Number of incorrect RAS predictions.
system.cpu.branchPred.condIncorrect             81389                       # Number of conditional branches incorrect
system.cpu.branchPred.condPredicted           3728193                       # Number of conditional branches predicted
system.cpu.branchPred.indirectHits                292                       # Number of indirect target hits.
system.cpu.branchPred.indirectLookups             998                       # Number of indirect predictor lookups.
system.cpu.branchPred.indirectMisses              706                       # Number of indirect misses.
system.cpu.branchPred.lookups                 4478296                       # Number of BP lookups
system.cpu.branchPred.usedRAS                   65354                       # Number of times the RAS was used to get a target.
system.cpu.branchPredindirectMispredicted          168                       # Number of mispredicted indirect branches.
system.cpu.committedInsts                   100000001                       # Number of instructions committed
system.cpu.committedOps                     100196363                       # Number of ops (including micro ops) committed
system.cpu.cpi                               1.607216                       # CPI: cycles per instruction
system.cpu.discardedOps                        190738                       # Number of ops (including micro ops) which were discarded before commit
system.cpu.dtb.accesses                             0                       # DTB accesses
system.cpu.dtb.align_faults                         0                       # Number of TLB faults due to alignment restrictions
system.cpu.dtb.domain_faults                        0                       # Number of TLB faults due to domain restrictions
system.cpu.dtb.flush_entries                        0                       # Number of entries that have been flushed from TLB
system.cpu.dtb.flush_tlb                            0                       # Number of times complete TLB was flushed
system.cpu.dtb.flush_tlb_asid                       0                       # Number of times TLB was flushed by ASID
system.cpu.dtb.flush_tlb_mva                        0                       # Number of times TLB was flushed by MVA
system.cpu.dtb.flush_tlb_mva_asid                   0                       # Number of times TLB was flushed by MVA & ASID
system.cpu.dtb.hits                                 0                       # DTB hits
system.cpu.dtb.inst_accesses                        0                       # ITB inst accesses
system.cpu.dtb.inst_hits                            0                       # ITB inst hits
system.cpu.dtb.inst_misses                          0                       # ITB inst misses
system.cpu.dtb.misses                               0                       # DTB misses
system.cpu.dtb.perms_faults                         0                       # Number of TLB faults due to permissions restrictions
system.cpu.dtb.prefetch_faults                      0                       # Number of TLB faults due to prefetch
system.cpu.dtb.read_accesses                        0                       # DTB read accesses
system.cpu.dtb.read_hits                            0                       # DTB read hits
system.cpu.dtb.read_misses                          0                       # DTB read misses
system.cpu.dtb.stage2_mmu.stage2_tlb.accesses            0                       # DTB accesses
system.cpu.dtb.stage2_mmu.stage2_tlb.align_faults            0                       # Number of TLB faults due to alignment restrictions
system.cpu.dtb.stage2_mmu.stage2_tlb.domain_faults            0                       # Number of TLB faults due to domain restrictions
system.cpu.dtb.stage2_mmu.stage2_tlb.flush_entries            0                       # Number of entries that have been flushed from TLB
system.cpu.dtb.stage2_mmu.stage2_tlb.flush_tlb            0                       # Number of times complete TLB was flushed
system.cpu.dtb.stage2_mmu.stage2_tlb.flush_tlb_asid            0                       # Number of times TLB was flushed by ASID
system.cpu.dtb.stage2_mmu.stage2_tlb.flush_tlb_mva            0                       # Number of times TLB was flushed by MVA
system.cpu.dtb.stage2_mmu.stage2_tlb.flush_tlb_mva_asid            0                       # Number of times TLB was flushed by MVA & ASID
system.cpu.dtb.stage2_mmu.stage2_tlb.hits            0                       # DTB hits
system.cpu.dtb.stage2_mmu.stage2_tlb.inst_accesses            0                       # ITB inst accesses
system.cpu.dtb.stage2_mmu.stage2_tlb.inst_hits            0                       # ITB inst hits
system.cpu.dtb.stage2_mmu.stage2_tlb.inst_misses            0                       # ITB inst misses
system.cpu.dtb.stage2_mmu.stage2_tlb.misses            0                       # DTB misses
system.cpu.dtb.stage2_mmu.stage2_tlb.perms_faults            0                       # Number of TLB faults due to permissions restrictions
system.cpu.dtb.stage2_mmu.stage2_tlb.prefetch_faults            0                       # Number of TLB faults due to prefetch
system.cpu.dtb.stage2_mmu.stage2_tlb.read_accesses            0                       # DTB read accesses
system.cpu.dtb.stage2_mmu.stage2_tlb.read_hits            0                       # DTB read hits
system.cpu.dtb.stage2_mmu.stage2_tlb.read_misses            0                       # DTB read misses
system.cpu.dtb.stage2_mmu.stage2_tlb.walker.walkRequestOrigin_Requested::Data            0                       # Table walker requests started/completed, data/inst
system.cpu.dtb.stage2_mmu.stage2_tlb.walker.walkRequestOrigin_Requested::Inst            0                       # Table walker requests started/completed, data/inst
system.cpu.dtb.stage2_mmu.stage2_tlb.walker.walkRequestOrigin_Requested::total            0                       # Table walker requests started/completed, data/inst
system.cpu.dtb.stage2_mmu.stage2_tlb.walker.walkRequestOrigin_Completed::Data            0                       # Table walker requests started/completed, data/inst
system.cpu.dtb.stage2_mmu.stage2_tlb.walker.walkRequestOrigin_Completed::Inst            0                       # Table walker requests started/completed, data/inst
system.cpu.dtb.stage2_mmu.stage2_tlb.walker.walkRequestOrigin_Completed::total            0                       # Table walker requests started/completed, data/inst
system.cpu.dtb.stage2_mmu.stage2_tlb.walker.walkRequestOrigin::total            0                       # Table walker requests started/completed, data/inst
system.cpu.dtb.stage2_mmu.stage2_tlb.walker.walks            0                       # Table walker walks requested
system.cpu.dtb.stage2_mmu.stage2_tlb.write_accesses            0                       # DTB write accesses
system.cpu.dtb.stage2_mmu.stage2_tlb.write_hits            0                       # DTB write hits
system.cpu.dtb.stage2_mmu.stage2_tlb.write_misses            0                       # DTB write misses
system.cpu.dtb.walker.walkRequestOrigin_Requested::Data            0                       # Table walker requests started/completed, data/inst
system.cpu.dtb.walker.walkRequestOrigin_Requested::Inst            0                       # Table walker requests started/completed, data/inst
system.cpu.dtb.walker.walkRequestOrigin_Requested::total            0                       # Table walker requests started/completed, data/inst
system.cpu.dtb.walker.walkRequestOrigin_Completed::Data            0                       # Table walker requests started/completed, data/inst
system.cpu.dtb.walker.walkRequestOrigin_Completed::Inst            0                       # Table walker requests started/completed, data/inst
system.cpu.dtb.walker.walkRequestOrigin_Completed::total            0                       # Table walker requests started/completed, data/inst
system.cpu.dtb.walker.walkRequestOrigin::total            0                       # Table walker requests started/completed, data/inst
system.cpu.dtb.walker.walks                         0                       # Table walker walks requested
system.cpu.dtb.write_accesses                       0                       # DTB write accesses
system.cpu.dtb.write_hits                           0                       # DTB write hits
system.cpu.dtb.write_misses                         0                       # DTB write misses
system.cpu.fetch2.amo_instructions                  0                       # Number of memory atomic instructions successfully decoded
system.cpu.fetch2.fp_instructions                   0                       # Number of floating point instructions successfully decoded
system.cpu.fetch2.int_instructions           42610491                       # Number of integer instructions successfully decoded
system.cpu.fetch2.load_instructions          43403226                       # Number of memory load instructions successfully decoded
system.cpu.fetch2.store_instructions         11001570                       # Number of memory store instructions successfully decoded
system.cpu.fetch2.vec_instructions                  0                       # Number of SIMD instructions successfully decoded
system.cpu.idleCycles                        28489161                       # Total number of cycles that the object has spent stopped
system.cpu.ipc                               0.622194                       # IPC: instructions per cycle
system.cpu.itb.accesses                             0                       # DTB accesses
system.cpu.itb.align_faults                         0                       # Number of TLB faults due to alignment restrictions
system.cpu.itb.domain_faults                        0                       # Number of TLB faults due to domain restrictions
system.cpu.itb.flush_entries                        0                       # Number of entries that have been flushed from TLB
system.cpu.itb.flush_tlb                            0                       # Number of times complete TLB was flushed
system.cpu.itb.flush_tlb_asid                       0                       # Number of times TLB was flushed by ASID
system.cpu.itb.flush_tlb_mva                        0                       # Number of times TLB was flushed by MVA
system.cpu.itb.flush_tlb_mva_asid                   0                       # Number of times TLB was flushed by MVA & ASID
system.cpu.itb.hits                                 0                       # DTB hits
system.cpu.itb.inst_accesses                        0                       # ITB inst accesses
system.cpu.itb.inst_hits                            0                       # ITB inst hits
system.cpu.itb.inst_misses                          0                       # ITB inst misses
system.cpu.itb.misses                               0                       # DTB misses
system.cpu.itb.perms_faults                         0                       # Number of TLB faults due to permissions restrictions
system.cpu.itb.prefetch_faults                      0                       # Number of TLB faults due to prefetch
system.cpu.itb.read_accesses                        0                       # DTB read accesses
system.cpu.itb.read_hits                            0                       # DTB read hits
system.cpu.itb.read_misses                          0                       # DTB read misses
system.cpu.itb.stage2_mmu.stage2_tlb.accesses            0                       # DTB accesses
system.cpu.itb.stage2_mmu.stage2_tlb.align_faults            0                       # Number of TLB faults due to alignment restrictions
system.cpu.itb.stage2_mmu.stage2_tlb.domain_faults            0                       # Number of TLB faults due to domain restrictions
system.cpu.itb.stage2_mmu.stage2_tlb.flush_entries            0                       # Number of entries that have been flushed from TLB
system.cpu.itb.stage2_mmu.stage2_tlb.flush_tlb            0                       # Number of times complete TLB was flushed
system.cpu.itb.stage2_mmu.stage2_tlb.flush_tlb_asid            0                       # Number of times TLB was flushed by ASID
system.cpu.itb.stage2_mmu.stage2_tlb.flush_tlb_mva            0                       # Number of times TLB was flushed by MVA
system.cpu.itb.stage2_mmu.stage2_tlb.flush_tlb_mva_asid            0                       # Number of times TLB was flushed by MVA & ASID
system.cpu.itb.stage2_mmu.stage2_tlb.hits            0                       # DTB hits
system.cpu.itb.stage2_mmu.stage2_tlb.inst_accesses            0                       # ITB inst accesses
system.cpu.itb.stage2_mmu.stage2_tlb.inst_hits            0                       # ITB inst hits
system.cpu.itb.stage2_mmu.stage2_tlb.inst_misses            0                       # ITB inst misses
system.cpu.itb.stage2_mmu.stage2_tlb.misses            0                       # DTB misses
system.cpu.itb.stage2_mmu.stage2_tlb.perms_faults            0                       # Number of TLB faults due to permissions restrictions
system.cpu.itb.stage2_mmu.stage2_tlb.prefetch_faults            0                       # Number of TLB faults due to prefetch
system.cpu.itb.stage2_mmu.stage2_tlb.read_accesses            0                       # DTB read accesses
system.cpu.itb.stage2_mmu.stage2_tlb.read_hits            0                       # DTB read hits
system.cpu.itb.stage2_mmu.stage2_tlb.read_misses            0                       # DTB read misses
system.cpu.itb.stage2_mmu.stage2_tlb.walker.walkRequestOrigin_Requested::Data            0                       # Table walker requests started/completed, data/inst
system.cpu.itb.stage2_mmu.stage2_tlb.walker.walkRequestOrigin_Requested::Inst            0                       # Table walker requests started/completed, data/inst
system.cpu.itb.stage2_mmu.stage2_tlb.walker.walkRequestOrigin_Requested::total            0                       # Table walker requests started/completed, data/inst
system.cpu.itb.stage2_mmu.stage2_tlb.walker.walkRequestOrigin_Completed::Data            0                       # Table walker requests started/completed, data/inst
system.cpu.itb.stage2_mmu.stage2_tlb.walker.walkRequestOrigin_Completed::Inst            0                       # Table walker requests started/completed, data/inst
system.cpu.itb.stage2_mmu.stage2_tlb.walker.walkRequestOrigin_Completed::total            0                       # Table walker requests started/completed, data/inst
system.cpu.itb.stage2_mmu.stage2_tlb.walker.walkRequestOrigin::total            0                       # Table walker requests started/completed, data/inst
system.cpu.itb.stage2_mmu.stage2_tlb.walker.walks            0                       # Table walker walks requested
system.cpu.itb.stage2_mmu.stage2_tlb.write_accesses            0                       # DTB write accesses
system.cpu.itb.stage2_mmu.stage2_tlb.write_hits            0                       # DTB write hits
system.cpu.itb.stage2_mmu.stage2_tlb.write_misses            0                       # DTB write misses
system.cpu.itb.walker.walkRequestOrigin_Requested::Data            0                       # Table walker requests started/completed, data/inst
system.cpu.itb.walker.walkRequestOrigin_Requested::Inst            0                       # Table walker requests started/completed, data/inst
system.cpu.itb.walker.walkRequestOrigin_Requested::total            0                       # Table walker requests started/completed, data/inst
system.cpu.itb.walker.walkRequestOrigin_Completed::Data            0                       # Table walker requests started/completed, data/inst
system.cpu.itb.walker.walkRequestOrigin_Completed::Inst            0                       # Table walker requests started/completed, data/inst
system.cpu.itb.walker.walkRequestOrigin_Completed::total            0                       # Table walker requests started/completed, data/inst
system.cpu.itb.walker.walkRequestOrigin::total            0                       # Table walker requests started/completed, data/inst
system.cpu.itb.walker.walks                         0                       # Table walker walks requested
system.cpu.itb.write_accesses                       0                       # DTB write accesses
system.cpu.itb.write_hits                           0                       # DTB write hits
system.cpu.itb.write_misses                         0                       # DTB write misses
system.cpu.numCycles                        160721569                       # number of cpu cycles simulated
system.cpu.numFetchSuspends                         0                       # Number of times Execute suspended instruction fetching
system.cpu.numWorkItemsCompleted                    0                       # number of work items this cpu completed
system.cpu.numWorkItemsStarted                      0                       # number of work items this cpu started
system.cpu.op_class_0::No_OpClass                   0      0.00%      0.00% # Class of committed instruction
system.cpu.op_class_0::IntAlu                46531400     46.44%     46.44% # Class of committed instruction
system.cpu.op_class_0::IntMult                  20720      0.02%     46.46% # Class of committed instruction
system.cpu.op_class_0::IntDiv                       0      0.00%     46.46% # Class of committed instruction
system.cpu.op_class_0::FloatAdd                     0      0.00%     46.46% # Class of committed instruction
system.cpu.op_class_0::FloatCmp                     0      0.00%     46.46% # Class of committed instruction
system.cpu.op_class_0::FloatCvt                     0      0.00%     46.46% # Class of committed instruction
system.cpu.op_class_0::FloatMult                    0      0.00%     46.46% # Class of committed instruction
system.cpu.op_class_0::FloatMultAcc                 0      0.00%     46.46% # Class of committed instruction
system.cpu.op_class_0::FloatDiv                     0      0.00%     46.46% # Class of committed instruction
system.cpu.op_class_0::FloatMisc                    0      0.00%     46.46% # Class of committed instruction
system.cpu.op_class_0::FloatSqrt                    0      0.00%     46.46% # Class of committed instruction
system.cpu.op_class_0::SimdAdd                      0      0.00%     46.46% # Class of committed instruction
system.cpu.op_class_0::SimdAddAcc                   0      0.00%     46.46% # Class of committed instruction
system.cpu.op_class_0::SimdAlu                      0      0.00%     46.46% # Class of committed instruction
system.cpu.op_class_0::SimdCmp                      0      0.00%     46.46% # Class of committed instruction
system.cpu.op_class_0::SimdCvt                      0      0.00%     46.46% # Class of committed instruction
system.cpu.op_class_0::SimdMisc                     0      0.00%     46.46% # Class of committed instruction
system.cpu.op_class_0::SimdMult                     0      0.00%     46.46% # Class of committed instruction
system.cpu.op_class_0::SimdMultAcc                  0      0.00%     46.46% # Class of committed instruction
system.cpu.op_class_0::SimdShift                    0      0.00%     46.46% # Class of committed instruction
system.cpu.op_class_0::SimdShiftAcc                 0      0.00%     46.46% # Class of committed instruction
system.cpu.op_class_0::SimdDiv                      0      0.00%     46.46% # Class of committed instruction
system.cpu.op_class_0::SimdSqrt                     0      0.00%     46.46% # Class of committed instruction
system.cpu.op_class_0::SimdFloatAdd                 0      0.00%     46.46% # Class of committed instruction
system.cpu.op_class_0::SimdFloatAlu                 0      0.00%     46.46% # Class of committed instruction
system.cpu.op_class_0::SimdFloatCmp                 0      0.00%     46.46% # Class of committed instruction
system.cpu.op_class_0::SimdFloatCvt                 0      0.00%     46.46% # Class of committed instruction
system.cpu.op_class_0::SimdFloatDiv                 0      0.00%     46.46% # Class of committed instruction
system.cpu.op_class_0::SimdFloatMisc               18      0.00%     46.46% # Class of committed instruction
system.cpu.op_class_0::SimdFloatMult                0      0.00%     46.46% # Class of committed instruction
system.cpu.op_class_0::SimdFloatMultAcc             0      0.00%     46.46% # Class of committed instruction
system.cpu.op_class_0::SimdFloatSqrt                0      0.00%     46.46% # Class of committed instruction
system.cpu.op_class_0::SimdReduceAdd                0      0.00%     46.46% # Class of committed instruction
system.cpu.op_class_0::SimdReduceAlu                0      0.00%     46.46% # Class of committed instruction
system.cpu.op_class_0::SimdReduceCmp                0      0.00%     46.46% # Class of committed instruction
system.cpu.op_class_0::SimdFloatReduceAdd            0      0.00%     46.46% # Class of committed instruction
system.cpu.op_class_0::SimdFloatReduceCmp            0      0.00%     46.46% # Class of committed instruction
system.cpu.op_class_0::SimdAes                      0      0.00%     46.46% # Class of committed instruction
system.cpu.op_class_0::SimdAesMix                   0      0.00%     46.46% # Class of committed instruction
system.cpu.op_class_0::SimdSha1Hash                 0      0.00%     46.46% # Class of committed instruction
system.cpu.op_class_0::SimdSha1Hash2                0      0.00%     46.46% # Class of committed instruction
system.cpu.op_class_0::SimdSha256Hash               0      0.00%     46.46% # Class of committed instruction
system.cpu.op_class_0::SimdSha256Hash2              0      0.00%     46.46% # Class of committed instruction
system.cpu.op_class_0::SimdShaSigma2                0      0.00%     46.46% # Class of committed instruction
system.cpu.op_class_0::SimdShaSigma3                0      0.00%     46.46% # Class of committed instruction
system.cpu.op_class_0::SimdPredAlu                  0      0.00%     46.46% # Class of committed instruction
system.cpu.op_class_0::MemRead               42693601     42.61%     89.07% # Class of committed instruction
system.cpu.op_class_0::MemWrite              10950624     10.93%    100.00% # Class of committed instruction
system.cpu.op_class_0::FloatMemRead                 0      0.00%    100.00% # Class of committed instruction
system.cpu.op_class_0::FloatMemWrite                0      0.00%    100.00% # Class of committed instruction
system.cpu.op_class_0::IprAccess                    0      0.00%    100.00% # Class of committed instruction
system.cpu.op_class_0::InstPrefetch                 0      0.00%    100.00% # Class of committed instruction
system.cpu.op_class_0::total                100196363                       # Class of committed instruction
system.cpu.tickCycles                       132232408                       # Number of cycles that the object actually ticked
system.cpu.workload.numSyscalls                    84                       # Number of system calls
system.membus.snoop_filter.hit_multi_requests            0                       # Number of requests hitting in the snoop filter with multiple (>1) holders of the requested data.
system.membus.snoop_filter.hit_multi_snoops            0                       # Number of snoops hitting in the snoop filter with multiple (>1) holders of the requested data.
system.membus.snoop_filter.hit_single_requests        75864                       # Number of requests hitting in the snoop filter with a single holder of the requested data.
system.membus.snoop_filter.hit_single_snoops            0                       # Number of snoops hitting in the snoop filter with a single holder of the requested data.
system.membus.snoop_filter.tot_requests        184654                       # Total number of requests made to the snoop filter.
system.membus.snoop_filter.tot_snoops               0                       # Total number of snoops made to the snoop filter.
system.tol2bus.snoop_filter.hit_multi_requests           85                       # Number of requests hitting in the snoop filter with multiple (>1) holders of the requested data.
system.tol2bus.snoop_filter.hit_multi_snoops            0                       # Number of snoops hitting in the snoop filter with multiple (>1) holders of the requested data.
system.tol2bus.snoop_filter.hit_single_requests       472331                       # Number of requests hitting in the snoop filter with a single holder of the requested data.
system.tol2bus.snoop_filter.hit_single_snoops          269                       # Number of snoops hitting in the snoop filter with a single holder of the requested data.
system.tol2bus.snoop_filter.tot_requests       945921                       # Total number of requests made to the snoop filter.
system.tol2bus.snoop_filter.tot_snoops            269                       # Total number of snoops made to the snoop filter.
system.membus.pwrStateResidencyTicks::UNDEFINED  80360784500                       # Cumulative time (in ticks) in various power states
system.membus.trans_dist::ReadResp              29599                       # Transaction distribution
system.membus.trans_dist::WritebackDirty        49599                       # Transaction distribution
system.membus.trans_dist::CleanEvict            26259                       # Transaction distribution
system.membus.trans_dist::ReadExReq             79197                       # Transaction distribution
system.membus.trans_dist::ReadExResp            79197                       # Transaction distribution
system.membus.trans_dist::ReadSharedReq         29599                       # Transaction distribution
system.membus.pkt_count_system.l2.mem_side::system.mem_ctrls.port       293450                       # Packet count per connected master and slave (bytes)
system.membus.pkt_count::total                 293450                       # Packet count per connected master and slave (bytes)
system.membus.pkt_size_system.l2.mem_side::system.mem_ctrls.port     20274560                       # Cumulative packet size per connected master and slave (bytes)
system.membus.pkt_size::total                20274560                       # Cumulative packet size per connected master and slave (bytes)
system.membus.snoops                                0                       # Total snoops (count)
system.membus.snoopTraffic                          0                       # Total snoop traffic (bytes)
system.membus.snoop_fanout::samples            108796                       # Request fanout histogram
system.membus.snoop_fanout::mean                    0                       # Request fanout histogram
system.membus.snoop_fanout::stdev                   0                       # Request fanout histogram
system.membus.snoop_fanout::underflows              0      0.00%      0.00% # Request fanout histogram
system.membus.snoop_fanout::0                  108796    100.00%    100.00% # Request fanout histogram
system.membus.snoop_fanout::1                       0      0.00%    100.00% # Request fanout histogram
system.membus.snoop_fanout::overflows               0      0.00%    100.00% # Request fanout histogram
system.membus.snoop_fanout::min_value               0                       # Request fanout histogram
system.membus.snoop_fanout::max_value               0                       # Request fanout histogram
system.membus.snoop_fanout::total              108796                       # Request fanout histogram
system.membus.respLayer1.occupancy         1015139750                       # Layer occupancy (ticks)
system.membus.respLayer1.utilization              1.3                       # Layer utilization (%)
system.membus.reqLayer0.occupancy           606403000                       # Layer occupancy (ticks)
system.membus.reqLayer0.utilization               0.8                       # Layer utilization (%)
system.tol2bus.pwrStateResidencyTicks::UNDEFINED  80360784500                       # Cumulative time (in ticks) in various power states
system.tol2bus.trans_dist::ReadResp            255678                       # Transaction distribution
system.tol2bus.trans_dist::WritebackDirty       489803                       # Transaction distribution
system.tol2bus.trans_dist::WritebackClean          302                       # Transaction distribution
system.tol2bus.trans_dist::CleanEvict           58351                       # Transaction distribution
system.tol2bus.trans_dist::ReadExReq           217914                       # Transaction distribution
system.tol2bus.trans_dist::ReadExResp          217913                       # Transaction distribution
system.tol2bus.trans_dist::ReadCleanReq           540                       # Transaction distribution
system.tol2bus.trans_dist::ReadSharedReq       255138                       # Transaction distribution
system.tol2bus.pkt_count_system.cpu.icache.mem_side::system.l2.cpu_side         1382                       # Packet count per connected master and slave (bytes)
system.tol2bus.pkt_count_system.cpu.dcache.mem_side::system.l2.cpu_side      1418130                       # Packet count per connected master and slave (bytes)
system.tol2bus.pkt_count::total               1419512                       # Packet count per connected master and slave (bytes)
system.tol2bus.pkt_size_system.cpu.icache.mem_side::system.l2.cpu_side       107776                       # Cumulative packet size per connected master and slave (bytes)
system.tol2bus.pkt_size_system.cpu.dcache.mem_side::system.l2.cpu_side    116896640                       # Cumulative packet size per connected master and slave (bytes)
system.tol2bus.pkt_size::total              117004416                       # Cumulative packet size per connected master and slave (bytes)
system.tol2bus.snoops                           76127                       # Total snoops (count)
system.tol2bus.snoopTraffic                   6348672                       # Total snoop traffic (bytes)
system.tol2bus.snoop_fanout::samples           549719                       # Request fanout histogram
system.tol2bus.snoop_fanout::mean            0.000648                       # Request fanout histogram
system.tol2bus.snoop_fanout::stdev           0.025440                       # Request fanout histogram
system.tol2bus.snoop_fanout::underflows             0      0.00%      0.00% # Request fanout histogram
system.tol2bus.snoop_fanout::0                 549363     99.94%     99.94% # Request fanout histogram
system.tol2bus.snoop_fanout::1                    356      0.06%    100.00% # Request fanout histogram
system.tol2bus.snoop_fanout::2                      0      0.00%    100.00% # Request fanout histogram
system.tol2bus.snoop_fanout::overflows              0      0.00%    100.00% # Request fanout histogram
system.tol2bus.snoop_fanout::min_value              0                       # Request fanout histogram
system.tol2bus.snoop_fanout::max_value              1                       # Request fanout histogram
system.tol2bus.snoop_fanout::total             549719                       # Request fanout histogram
system.tol2bus.reqLayer0.occupancy         1353972500                       # Layer occupancy (ticks)
system.tol2bus.reqLayer0.utilization              1.7                       # Layer utilization (%)
system.tol2bus.respLayer1.occupancy        1182629995                       # Layer occupancy (ticks)
system.tol2bus.respLayer1.utilization             1.5                       # Layer utilization (%)
system.tol2bus.respLayer0.occupancy           1350000                       # Layer occupancy (ticks)
system.tol2bus.respLayer0.utilization             0.0                       # Layer utilization (%)
system.voltage_domain.voltage                       1                       # Voltage in Volts
system.clk_domain.clock                          1000                       # Clock period in ticks
system.l2.pwrStateResidencyTicks::UNDEFINED  80360784500                       # Cumulative time (in ticks) in various power states
system.l2.demand_hits::.cpu.inst                  125                       # number of demand (read+write) hits
system.l2.demand_hits::.cpu.data               364666                       # number of demand (read+write) hits
system.l2.demand_hits::total                   364791                       # number of demand (read+write) hits
system.l2.overall_hits::.cpu.inst                 125                       # number of overall hits
system.l2.overall_hits::.cpu.data              364666                       # number of overall hits
system.l2.overall_hits::total                  364791                       # number of overall hits
system.l2.demand_misses::.cpu.inst                415                       # number of demand (read+write) misses
system.l2.demand_misses::.cpu.data             108386                       # number of demand (read+write) misses
system.l2.demand_misses::total                 108801                       # number of demand (read+write) misses
system.l2.overall_misses::.cpu.inst               415                       # number of overall misses
system.l2.overall_misses::.cpu.data            108386                       # number of overall misses
system.l2.overall_misses::total                108801                       # number of overall misses
system.l2.demand_miss_latency::.cpu.inst     35597500                       # number of demand (read+write) miss cycles
system.l2.demand_miss_latency::.cpu.data   9762935500                       # number of demand (read+write) miss cycles
system.l2.demand_miss_latency::total       9798533000                       # number of demand (read+write) miss cycles
system.l2.overall_miss_latency::.cpu.inst     35597500                       # number of overall miss cycles
system.l2.overall_miss_latency::.cpu.data   9762935500                       # number of overall miss cycles
system.l2.overall_miss_latency::total      9798533000                       # number of overall miss cycles
system.l2.demand_accesses::.cpu.inst              540                       # number of demand (read+write) accesses
system.l2.demand_accesses::.cpu.data           473052                       # number of demand (read+write) accesses
system.l2.demand_accesses::total               473592                       # number of demand (read+write) accesses
system.l2.overall_accesses::.cpu.inst             540                       # number of overall (read+write) accesses
system.l2.overall_accesses::.cpu.data          473052                       # number of overall (read+write) accesses
system.l2.overall_accesses::total              473592                       # number of overall (read+write) accesses
system.l2.demand_miss_rate::.cpu.inst        0.768519                       # miss rate for demand accesses
system.l2.demand_miss_rate::.cpu.data        0.229121                       # miss rate for demand accesses
system.l2.demand_miss_rate::total            0.229736                       # miss rate for demand accesses
system.l2.overall_miss_rate::.cpu.inst       0.768519                       # miss rate for overall accesses
system.l2.overall_miss_rate::.cpu.data       0.229121                       # miss rate for overall accesses
system.l2.overall_miss_rate::total           0.229736                       # miss rate for overall accesses
system.l2.demand_avg_miss_latency::.cpu.inst 85777.108434                       # average overall miss latency
system.l2.demand_avg_miss_latency::.cpu.data 90075.614009                       # average overall miss latency
system.l2.demand_avg_miss_latency::total 90059.218206                       # average overall miss latency
system.l2.overall_avg_miss_latency::.cpu.inst 85777.108434                       # average overall miss latency
system.l2.overall_avg_miss_latency::.cpu.data 90075.614009                       # average overall miss latency
system.l2.overall_avg_miss_latency::total 90059.218206                       # average overall miss latency
system.l2.blocked_cycles::no_mshrs                  0                       # number of cycles access was blocked
system.l2.blocked_cycles::no_targets                0                       # number of cycles access was blocked
system.l2.blocked::no_mshrs                         0                       # number of cycles access was blocked
system.l2.blocked::no_targets                       0                       # number of cycles access was blocked
system.l2.avg_blocked_cycles::no_mshrs            nan                       # average number of cycles each access was blocked
system.l2.avg_blocked_cycles::no_targets          nan                       # average number of cycles each access was blocked
system.l2.writebacks::.writebacks               49599                       # number of writebacks
system.l2.writebacks::total                     49599                       # number of writebacks
system.l2.demand_mshr_hits::.cpu.data               5                       # number of demand (read+write) MSHR hits
system.l2.demand_mshr_hits::total                   5                       # number of demand (read+write) MSHR hits
system.l2.overall_mshr_hits::.cpu.data              5                       # number of overall MSHR hits
system.l2.overall_mshr_hits::total                  5                       # number of overall MSHR hits
system.l2.demand_mshr_misses::.cpu.inst           415                       # number of demand (read+write) MSHR misses
system.l2.demand_mshr_misses::.cpu.data        108381                       # number of demand (read+write) MSHR misses
system.l2.demand_mshr_misses::total            108796                       # number of demand (read+write) MSHR misses
system.l2.overall_mshr_misses::.cpu.inst          415                       # number of overall MSHR misses
system.l2.overall_mshr_misses::.cpu.data       108381                       # number of overall MSHR misses
system.l2.overall_mshr_misses::total           108796                       # number of overall MSHR misses
system.l2.demand_mshr_miss_latency::.cpu.inst     31447500                       # number of demand (read+write) MSHR miss cycles
system.l2.demand_mshr_miss_latency::.cpu.data   8678762000                       # number of demand (read+write) MSHR miss cycles
system.l2.demand_mshr_miss_latency::total   8710209500                       # number of demand (read+write) MSHR miss cycles
system.l2.overall_mshr_miss_latency::.cpu.inst     31447500                       # number of overall MSHR miss cycles
system.l2.overall_mshr_miss_latency::.cpu.data   8678762000                       # number of overall MSHR miss cycles
system.l2.overall_mshr_miss_latency::total   8710209500                       # number of overall MSHR miss cycles
system.l2.demand_mshr_miss_rate::.cpu.inst     0.768519                       # mshr miss rate for demand accesses
system.l2.demand_mshr_miss_rate::.cpu.data     0.229110                       # mshr miss rate for demand accesses
system.l2.demand_mshr_miss_rate::total       0.229725                       # mshr miss rate for demand accesses
system.l2.overall_mshr_miss_rate::.cpu.inst     0.768519                       # mshr miss rate for overall accesses
system.l2.overall_mshr_miss_rate::.cpu.data     0.229110                       # mshr miss rate for overall accesses
system.l2.overall_mshr_miss_rate::total      0.229725                       # mshr miss rate for overall accesses
system.l2.demand_avg_mshr_miss_latency::.cpu.inst 75777.108434                       # average overall mshr miss latency
system.l2.demand_avg_mshr_miss_latency::.cpu.data 80076.415608                       # average overall mshr miss latency
system.l2.demand_avg_mshr_miss_latency::total 80060.015993                       # average overall mshr miss latency
system.l2.overall_avg_mshr_miss_latency::.cpu.inst 75777.108434                       # average overall mshr miss latency
system.l2.overall_avg_mshr_miss_latency::.cpu.data 80076.415608                       # average overall mshr miss latency
system.l2.overall_avg_mshr_miss_latency::total 80060.015993                       # average overall mshr miss latency
system.l2.replacements                          76127                       # number of replacements
system.l2.WritebackDirty_hits::.writebacks       440204                       # number of WritebackDirty hits
system.l2.WritebackDirty_hits::total           440204                       # number of WritebackDirty hits
system.l2.WritebackDirty_accesses::.writebacks       440204                       # number of WritebackDirty accesses(hits+misses)
system.l2.WritebackDirty_accesses::total       440204                       # number of WritebackDirty accesses(hits+misses)
system.l2.WritebackClean_hits::.writebacks          289                       # number of WritebackClean hits
system.l2.WritebackClean_hits::total              289                       # number of WritebackClean hits
system.l2.WritebackClean_accesses::.writebacks          289                       # number of WritebackClean accesses(hits+misses)
system.l2.WritebackClean_accesses::total          289                       # number of WritebackClean accesses(hits+misses)
system.l2.ReadExReq_hits::.cpu.data            138717                       # number of ReadExReq hits
system.l2.ReadExReq_hits::total                138717                       # number of ReadExReq hits
system.l2.ReadExReq_misses::.cpu.data           79197                       # number of ReadExReq misses
system.l2.ReadExReq_misses::total               79197                       # number of ReadExReq misses
system.l2.ReadExReq_miss_latency::.cpu.data   7285758000                       # number of ReadExReq miss cycles
system.l2.ReadExReq_miss_latency::total    7285758000                       # number of ReadExReq miss cycles
system.l2.ReadExReq_accesses::.cpu.data        217914                       # number of ReadExReq accesses(hits+misses)
system.l2.ReadExReq_accesses::total            217914                       # number of ReadExReq accesses(hits+misses)
system.l2.ReadExReq_miss_rate::.cpu.data     0.363432                       # miss rate for ReadExReq accesses
system.l2.ReadExReq_miss_rate::total         0.363432                       # miss rate for ReadExReq accesses
system.l2.ReadExReq_avg_miss_latency::.cpu.data 91995.378613                       # average ReadExReq miss latency
system.l2.ReadExReq_avg_miss_latency::total 91995.378613                       # average ReadExReq miss latency
system.l2.ReadExReq_mshr_misses::.cpu.data        79197                       # number of ReadExReq MSHR misses
system.l2.ReadExReq_mshr_misses::total          79197                       # number of ReadExReq MSHR misses
system.l2.ReadExReq_mshr_miss_latency::.cpu.data   6493788000                       # number of ReadExReq MSHR miss cycles
system.l2.ReadExReq_mshr_miss_latency::total   6493788000                       # number of ReadExReq MSHR miss cycles
system.l2.ReadExReq_mshr_miss_rate::.cpu.data     0.363432                       # mshr miss rate for ReadExReq accesses
system.l2.ReadExReq_mshr_miss_rate::total     0.363432                       # mshr miss rate for ReadExReq accesses
system.l2.ReadExReq_avg_mshr_miss_latency::.cpu.data 81995.378613                       # average ReadExReq mshr miss latency
system.l2.ReadExReq_avg_mshr_miss_latency::total 81995.378613                       # average ReadExReq mshr miss latency
system.l2.ReadCleanReq_hits::.cpu.inst            125                       # number of ReadCleanReq hits
system.l2.ReadCleanReq_hits::total                125                       # number of ReadCleanReq hits
system.l2.ReadCleanReq_misses::.cpu.inst          415                       # number of ReadCleanReq misses
system.l2.ReadCleanReq_misses::total              415                       # number of ReadCleanReq misses
system.l2.ReadCleanReq_miss_latency::.cpu.inst     35597500                       # number of ReadCleanReq miss cycles
system.l2.ReadCleanReq_miss_latency::total     35597500                       # number of ReadCleanReq miss cycles
system.l2.ReadCleanReq_accesses::.cpu.inst          540                       # number of ReadCleanReq accesses(hits+misses)
system.l2.ReadCleanReq_accesses::total            540                       # number of ReadCleanReq accesses(hits+misses)
system.l2.ReadCleanReq_miss_rate::.cpu.inst     0.768519                       # miss rate for ReadCleanReq accesses
system.l2.ReadCleanReq_miss_rate::total      0.768519                       # miss rate for ReadCleanReq accesses
system.l2.ReadCleanReq_avg_miss_latency::.cpu.inst 85777.108434                       # average ReadCleanReq miss latency
system.l2.ReadCleanReq_avg_miss_latency::total 85777.108434                       # average ReadCleanReq miss latency
system.l2.ReadCleanReq_mshr_misses::.cpu.inst          415                       # number of ReadCleanReq MSHR misses
system.l2.ReadCleanReq_mshr_misses::total          415                       # number of ReadCleanReq MSHR misses
system.l2.ReadCleanReq_mshr_miss_latency::.cpu.inst     31447500                       # number of ReadCleanReq MSHR miss cycles
system.l2.ReadCleanReq_mshr_miss_latency::total     31447500                       # number of ReadCleanReq MSHR miss cycles
system.l2.ReadCleanReq_mshr_miss_rate::.cpu.inst     0.768519                       # mshr miss rate for ReadCleanReq accesses
system.l2.ReadCleanReq_mshr_miss_rate::total     0.768519                       # mshr miss rate for ReadCleanReq accesses
system.l2.ReadCleanReq_avg_mshr_miss_latency::.cpu.inst 75777.108434                       # average ReadCleanReq mshr miss latency
system.l2.ReadCleanReq_avg_mshr_miss_latency::total 75777.108434                       # average ReadCleanReq mshr miss latency
system.l2.ReadSharedReq_hits::.cpu.data        225949                       # number of ReadSharedReq hits
system.l2.ReadSharedReq_hits::total            225949                       # number of ReadSharedReq hits
system.l2.ReadSharedReq_misses::.cpu.data        29189                       # number of ReadSharedReq misses
system.l2.ReadSharedReq_misses::total           29189                       # number of ReadSharedReq misses
system.l2.ReadSharedReq_miss_latency::.cpu.data   2477177500                       # number of ReadSharedReq miss cycles
system.l2.ReadSharedReq_miss_latency::total   2477177500                       # number of ReadSharedReq miss cycles
system.l2.ReadSharedReq_accesses::.cpu.data       255138                       # number of ReadSharedReq accesses(hits+misses)
system.l2.ReadSharedReq_accesses::total        255138                       # number of ReadSharedReq accesses(hits+misses)
system.l2.ReadSharedReq_miss_rate::.cpu.data     0.114405                       # miss rate for ReadSharedReq accesses
system.l2.ReadSharedReq_miss_rate::total     0.114405                       # miss rate for ReadSharedReq accesses
system.l2.ReadSharedReq_avg_miss_latency::.cpu.data 84866.816266                       # average ReadSharedReq miss latency
system.l2.ReadSharedReq_avg_miss_latency::total 84866.816266                       # average ReadSharedReq miss latency
system.l2.ReadSharedReq_mshr_hits::.cpu.data            5                       # number of ReadSharedReq MSHR hits
system.l2.ReadSharedReq_mshr_hits::total            5                       # number of ReadSharedReq MSHR hits
system.l2.ReadSharedReq_mshr_misses::.cpu.data        29184                       # number of ReadSharedReq MSHR misses
system.l2.ReadSharedReq_mshr_misses::total        29184                       # number of ReadSharedReq MSHR misses
system.l2.ReadSharedReq_mshr_miss_latency::.cpu.data   2184974000                       # number of ReadSharedReq MSHR miss cycles
system.l2.ReadSharedReq_mshr_miss_latency::total   2184974000                       # number of ReadSharedReq MSHR miss cycles
system.l2.ReadSharedReq_mshr_miss_rate::.cpu.data     0.114385                       # mshr miss rate for ReadSharedReq accesses
system.l2.ReadSharedReq_mshr_miss_rate::total     0.114385                       # mshr miss rate for ReadSharedReq accesses
system.l2.ReadSharedReq_avg_mshr_miss_latency::.cpu.data 74868.900768                       # average ReadSharedReq mshr miss latency
system.l2.ReadSharedReq_avg_mshr_miss_latency::total 74868.900768                       # average ReadSharedReq mshr miss latency
system.l2.tags.pwrStateResidencyTicks::UNDEFINED  80360784500                       # Cumulative time (in ticks) in various power states
system.l2.tags.tagsinuse                 31572.572461                       # Cycle average of tags in use
system.l2.tags.total_refs                      945831                       # Total number of references to valid blocks.
system.l2.tags.sampled_refs                    108895                       # Sample count of references to valid blocks.
system.l2.tags.avg_refs                      8.685716                       # Average number of references to valid blocks.
system.l2.tags.warmup_cycle                     82000                       # Cycle when the warmup percentage was hit.
system.l2.tags.occ_blocks::.writebacks      54.662977                       # Average occupied blocks per requestor
system.l2.tags.occ_blocks::.cpu.inst        77.788581                       # Average occupied blocks per requestor
system.l2.tags.occ_blocks::.cpu.data     31440.120902                       # Average occupied blocks per requestor
system.l2.tags.occ_percent::.writebacks      0.001668                       # Average percentage of cache occupancy
system.l2.tags.occ_percent::.cpu.inst        0.002374                       # Average percentage of cache occupancy
system.l2.tags.occ_percent::.cpu.data        0.959476                       # Average percentage of cache occupancy
system.l2.tags.occ_percent::total            0.963518                       # Average percentage of cache occupancy
system.l2.tags.occ_task_id_blocks::1024         32768                       # Occupied blocks per task id
system.l2.tags.age_task_id_blocks_1024::2            2                       # Occupied blocks per task id
system.l2.tags.age_task_id_blocks_1024::3         2540                       # Occupied blocks per task id
system.l2.tags.age_task_id_blocks_1024::4        30226                       # Occupied blocks per task id
system.l2.tags.occ_task_id_percent::1024            1                       # Percentage of cache occupancy per task id
system.l2.tags.tag_accesses                  15242271                       # Number of tag accesses
system.l2.tags.data_accesses                 15242271                       # Number of data accesses
system.cpu_voltage_domain.voltage                   1                       # Voltage in Volts
system.mem_ctrls.pwrStateResidencyTicks::UNDEFINED  80360784500                       # Cumulative time (in ticks) in various power states
system.mem_ctrls.bytes_read::.cpu.inst          53120                       # Number of bytes read from this memory
system.mem_ctrls.bytes_read::.cpu.data       13872768                       # Number of bytes read from this memory
system.mem_ctrls.bytes_read::total           13925888                       # Number of bytes read from this memory
system.mem_ctrls.bytes_inst_read::.cpu.inst        53120                       # Number of instructions bytes read from this memory
system.mem_ctrls.bytes_inst_read::total         53120                       # Number of instructions bytes read from this memory
system.mem_ctrls.bytes_written::.writebacks      6348672                       # Number of bytes written to this memory
system.mem_ctrls.bytes_written::total         6348672                       # Number of bytes written to this memory
system.mem_ctrls.num_reads::.cpu.inst             415                       # Number of read requests responded to by this memory
system.mem_ctrls.num_reads::.cpu.data          108381                       # Number of read requests responded to by this memory
system.mem_ctrls.num_reads::total              108796                       # Number of read requests responded to by this memory
system.mem_ctrls.num_writes::.writebacks        49599                       # Number of write requests responded to by this memory
system.mem_ctrls.num_writes::total              49599                       # Number of write requests responded to by this memory
system.mem_ctrls.bw_read::.cpu.inst            661019                       # Total read bandwidth from this memory (bytes/s)
system.mem_ctrls.bw_read::.cpu.data         172631067                       # Total read bandwidth from this memory (bytes/s)
system.mem_ctrls.bw_read::total             173292086                       # Total read bandwidth from this memory (bytes/s)
system.mem_ctrls.bw_inst_read::.cpu.inst       661019                       # Instruction read bandwidth from this memory (bytes/s)
system.mem_ctrls.bw_inst_read::total           661019                       # Instruction read bandwidth from this memory (bytes/s)
system.mem_ctrls.bw_write::.writebacks       79002116                       # Write bandwidth from this memory (bytes/s)
system.mem_ctrls.bw_write::total             79002116                       # Write bandwidth from this memory (bytes/s)
system.mem_ctrls.bw_total::.writebacks       79002116                       # Total bandwidth to/from this memory (bytes/s)
system.mem_ctrls.bw_total::.cpu.inst           661019                       # Total bandwidth to/from this memory (bytes/s)
system.mem_ctrls.bw_total::.cpu.data        172631067                       # Total bandwidth to/from this memory (bytes/s)
system.mem_ctrls.bw_total::total            252294202                       # Total bandwidth to/from this memory (bytes/s)
system.mem_ctrls.avgPriority_.writebacks::samples     99198.00                       # Average QoS priority value for accepted requests
system.mem_ctrls.avgPriority_.cpu.inst::samples       830.00                       # Average QoS priority value for accepted requests
system.mem_ctrls.avgPriority_.cpu.data::samples    216758.00                       # Average QoS priority value for accepted requests
system.mem_ctrls.priorityMinLatency      0.000000018750                       # per QoS priority minimum request to response latency (s)
system.mem_ctrls.priorityMaxLatency      0.002742129750                       # per QoS priority maximum request to response latency (s)
system.mem_ctrls.numReadWriteTurnArounds         6042                       # Number of turnarounds from READ to WRITE
system.mem_ctrls.numWriteReadTurnArounds         6042                       # Number of turnarounds from WRITE to READ
system.mem_ctrls.numStayReadState              385702                       # Number of times bus staying in READ state
system.mem_ctrls.numStayWriteState              93250                       # Number of times bus staying in WRITE state
system.mem_ctrls.readReqs                      108796                       # Number of read requests accepted
system.mem_ctrls.writeReqs                      49599                       # Number of write requests accepted
system.mem_ctrls.readBursts                    217592                       # Number of DRAM read bursts, including those serviced by the write queue
system.mem_ctrls.writeBursts                    99198                       # Number of DRAM write bursts, including those merged in the write queue
system.mem_ctrls.servicedByWrQ                      4                       # Number of DRAM read bursts serviced by the write queue
system.mem_ctrls.mergedWrBursts                     0                       # Number of DRAM write bursts merged with an existing one
system.mem_ctrls.neitherReadNorWriteReqs            0                       # Number of requests that are neither read nor write
system.mem_ctrls.perBankRdBursts::0             13812                       # Per bank write bursts
system.mem_ctrls.perBankRdBursts::1             13792                       # Per bank write bursts
system.mem_ctrls.perBankRdBursts::2             13750                       # Per bank write bursts
system.mem_ctrls.perBankRdBursts::3             13576                       # Per bank write bursts
system.mem_ctrls.perBankRdBursts::4             13534                       # Per bank write bursts
system.mem_ctrls.perBankRdBursts::5             13482                       # Per bank write bursts
system.mem_ctrls.perBankRdBursts::6             13458                       # Per bank write bursts
system.mem_ctrls.perBankRdBursts::7             13600                       # Per bank write bursts
system.mem_ctrls.perBankRdBursts::8             13608                       # Per bank write bursts
system.mem_ctrls.perBankRdBursts::9             13592                       # Per bank write bursts
system.mem_ctrls.perBankRdBursts::10            13660                       # Per bank write bursts
system.mem_ctrls.perBankRdBursts::11            13634                       # Per bank write bursts
system.mem_ctrls.perBankRdBursts::12            13590                       # Per bank write bursts
system.mem_ctrls.perBankRdBursts::13            13468                       # Per bank write bursts
system.mem_ctrls.perBankRdBursts::14            13470                       # Per bank write bursts
system.mem_ctrls.perBankRdBursts::15            13562                       # Per bank write bursts
system.mem_ctrls.perBankWrBursts::0              6272                       # Per bank write bursts
system.mem_ctrls.perBankWrBursts::1              6274                       # Per bank write bursts
system.mem_ctrls.perBankWrBursts::2              6318                       # Per bank write bursts
system.mem_ctrls.perBankWrBursts::3              6298                       # Per bank write bursts
system.mem_ctrls.perBankWrBursts::4              6200                       # Per bank write bursts
system.mem_ctrls.perBankWrBursts::5              6166                       # Per bank write bursts
system.mem_ctrls.perBankWrBursts::6              6175                       # Per bank write bursts
system.mem_ctrls.perBankWrBursts::7              6270                       # Per bank write bursts
system.mem_ctrls.perBankWrBursts::8              6184                       # Per bank write bursts
system.mem_ctrls.perBankWrBursts::9              6144                       # Per bank write bursts
system.mem_ctrls.perBankWrBursts::10             6138                       # Per bank write bursts
system.mem_ctrls.perBankWrBursts::11             6144                       # Per bank write bursts
system.mem_ctrls.perBankWrBursts::12             6118                       # Per bank write bursts
system.mem_ctrls.perBankWrBursts::13             6144                       # Per bank write bursts
system.mem_ctrls.perBankWrBursts::14             6144                       # Per bank write bursts
system.mem_ctrls.perBankWrBursts::15             6188                       # Per bank write bursts
system.mem_ctrls.avgRdQLen                       2.06                       # Average read queue length when enqueuing
system.mem_ctrls.avgWrQLen                      25.51                       # Average write queue length when enqueuing
system.mem_ctrls.totQLat                   3837524250                       # Total ticks spent queuing
system.mem_ctrls.totBusLat                 1087940000                       # Total ticks spent in databus transfers
system.mem_ctrls.totMemAccLat              7917299250                       # Total ticks spent from burst creation until serviced by the DRAM
system.mem_ctrls.avgQLat                     17636.65                       # Average queueing delay per DRAM burst
system.mem_ctrls.avgBusLat                    5000.00                       # Average bus latency per DRAM burst
system.mem_ctrls.avgMemAccLat                36386.65                       # Average memory access latency per DRAM burst
system.mem_ctrls.numRdRetry                         0                       # Number of times read queue was full causing retry
system.mem_ctrls.numWrRetry                         0                       # Number of times write queue was full causing retry
system.mem_ctrls.readRowHits                   184536                       # Number of row buffer hits during reads
system.mem_ctrls.writeRowHits                   86051                       # Number of row buffer hits during writes
system.mem_ctrls.readRowHitRate                 84.81                       # Row buffer hit rate for reads
system.mem_ctrls.writeRowHitRate                86.75                       # Row buffer hit rate for writes
system.mem_ctrls.readPktSize::0                     0                       # Read request sizes (log2)
system.mem_ctrls.readPktSize::1                     0                       # Read request sizes (log2)
system.mem_ctrls.readPktSize::2                     0                       # Read request sizes (log2)
system.mem_ctrls.readPktSize::3                     0                       # Read request sizes (log2)
system.mem_ctrls.readPktSize::4                     0                       # Read request sizes (log2)
system.mem_ctrls.readPktSize::5                     0                       # Read request sizes (log2)
system.mem_ctrls.readPktSize::6                217592                       # Read request sizes (log2)
system.mem_ctrls.writePktSize::0                    0                       # Write request sizes (log2)
system.mem_ctrls.writePktSize::1                    0                       # Write request sizes (log2)
system.mem_ctrls.writePktSize::2                    0                       # Write request sizes (log2)
system.mem_ctrls.writePktSize::3                    0                       # Write request sizes (log2)
system.mem_ctrls.writePktSize::4                    0                       # Write request sizes (log2)
system.mem_ctrls.writePktSize::5                    0                       # Write request sizes (log2)
system.mem_ctrls.writePktSize::6                99198                       # Write request sizes (log2)
system.mem_ctrls.rdQLenPdf::0                   91179                       # What read queue length does an incoming req see
system.mem_ctrls.rdQLenPdf::1                   91433                       # What read queue length does an incoming req see
system.mem_ctrls.rdQLenPdf::2                   17609                       # What read queue length does an incoming req see
system.mem_ctrls.rdQLenPdf::3                   17356                       # What read queue length does an incoming req see
system.mem_ctrls.rdQLenPdf::4                       5                       # What read queue length does an incoming req see
system.mem_ctrls.rdQLenPdf::5                       4                       # What read queue length does an incoming req see
system.mem_ctrls.rdQLenPdf::6                       1                       # What read queue length does an incoming req see
system.mem_ctrls.rdQLenPdf::7                       1                       # What read queue length does an incoming req see
system.mem_ctrls.rdQLenPdf::8                       0                       # What read queue length does an incoming req see
system.mem_ctrls.rdQLenPdf::9                       0                       # What read queue length does an incoming req see
system.mem_ctrls.rdQLenPdf::10                      0                       # What read queue length does an incoming req see
system.mem_ctrls.rdQLenPdf::11                      0                       # What read queue length does an incoming req see
system.mem_ctrls.rdQLenPdf::12                      0                       # What read queue length does an incoming req see
system.mem_ctrls.rdQLenPdf::13                      0                       # What read queue length does an incoming req see
system.mem_ctrls.rdQLenPdf::14                      0                       # What read queue length does an incoming req see
system.mem_ctrls.rdQLenPdf::15                      0                       # What read queue length does an incoming req see
system.mem_ctrls.rdQLenPdf::16                      0                       # What read queue length does an incoming req see
system.mem_ctrls.rdQLenPdf::17                      0                       # What read queue length does an incoming req see
system.mem_ctrls.rdQLenPdf::18                      0                       # What read queue length does an incoming req see
system.mem_ctrls.rdQLenPdf::19                      0                       # What read queue length does an incoming req see
system.mem_ctrls.rdQLenPdf::20                      0                       # What read queue length does an incoming req see
system.mem_ctrls.rdQLenPdf::21                      0                       # What read queue length does an incoming req see
system.mem_ctrls.rdQLenPdf::22                      0                       # What read queue length does an incoming req see
system.mem_ctrls.rdQLenPdf::23                      0                       # What read queue length does an incoming req see
system.mem_ctrls.rdQLenPdf::24                      0                       # What read queue length does an incoming req see
system.mem_ctrls.rdQLenPdf::25                      0                       # What read queue length does an incoming req see
system.mem_ctrls.rdQLenPdf::26                      0                       # What read queue length does an incoming req see
system.mem_ctrls.rdQLenPdf::27                      0                       # What read queue length does an incoming req see
system.mem_ctrls.rdQLenPdf::28                      0                       # What read queue length does an incoming req see
system.mem_ctrls.rdQLenPdf::29                      0                       # What read queue length does an incoming req see
system.mem_ctrls.rdQLenPdf::30                      0                       # What read queue length does an incoming req see
system.mem_ctrls.rdQLenPdf::31                      0                       # What read queue length does an incoming req see
system.mem_ctrls.wrQLenPdf::0                       1                       # What write queue length does an incoming req see
system.mem_ctrls.wrQLenPdf::1                       1                       # What write queue length does an incoming req see
system.mem_ctrls.wrQLenPdf::2                       1                       # What write queue length does an incoming req see
system.mem_ctrls.wrQLenPdf::3                       1                       # What write queue length does an incoming req see
system.mem_ctrls.wrQLenPdf::4                       1                       # What write queue length does an incoming req see
system.mem_ctrls.wrQLenPdf::5                       1                       # What write queue length does an incoming req see
system.mem_ctrls.wrQLenPdf::6                       1                       # What write queue length does an incoming req see
system.mem_ctrls.wrQLenPdf::7                       1                       # What write queue length does an incoming req see
system.mem_ctrls.wrQLenPdf::8                       1                       # What write queue length does an incoming req see
system.mem_ctrls.wrQLenPdf::9                       1                       # What write queue length does an incoming req see
system.mem_ctrls.wrQLenPdf::10                      1                       # What write queue length does an incoming req see
system.mem_ctrls.wrQLenPdf::11                      1                       # What write queue length does an incoming req see
system.mem_ctrls.wrQLenPdf::12                      1                       # What write queue length does an incoming req see
system.mem_ctrls.wrQLenPdf::13                      1                       # What write queue length does an incoming req see
system.mem_ctrls.wrQLenPdf::14                      1                       # What write queue length does an incoming req see
system.mem_ctrls.wrQLenPdf::15                   1185                       # What write queue length does an incoming req see
system.mem_ctrls.wrQLenPdf::16                   1194                       # What write queue length does an incoming req see
system.mem_ctrls.wrQLenPdf::17                   3130                       # What write queue length does an incoming req see
system.mem_ctrls.wrQLenPdf::18                   3765                       # What write queue length does an incoming req see
system.mem_ctrls.wrQLenPdf::19                   4372                       # What write queue length does an incoming req see
system.mem_ctrls.wrQLenPdf::20                   6078                       # What write queue length does an incoming req see
system.mem_ctrls.wrQLenPdf::21                   6086                       # What write queue length does an incoming req see
system.mem_ctrls.wrQLenPdf::22                   6082                       # What write queue length does an incoming req see
system.mem_ctrls.wrQLenPdf::23                   6071                       # What write queue length does an incoming req see
system.mem_ctrls.wrQLenPdf::24                   6075                       # What write queue length does an incoming req see
system.mem_ctrls.wrQLenPdf::25                   6869                       # What write queue length does an incoming req see
system.mem_ctrls.wrQLenPdf::26                   7916                       # What write queue length does an incoming req see
system.mem_ctrls.wrQLenPdf::27                   7161                       # What write queue length does an incoming req see
system.mem_ctrls.wrQLenPdf::28                   6139                       # What write queue length does an incoming req see
system.mem_ctrls.wrQLenPdf::29                   6334                       # What write queue length does an incoming req see
system.mem_ctrls.wrQLenPdf::30                   6286                       # What write queue length does an incoming req see
system.mem_ctrls.wrQLenPdf::31                   6048                       # What write queue length does an incoming req see
system.mem_ctrls.wrQLenPdf::32                   6044                       # What write queue length does an incoming req see
system.mem_ctrls.wrQLenPdf::33                   2329                       # What write queue length does an incoming req see
system.mem_ctrls.wrQLenPdf::34                     12                       # What write queue length does an incoming req see
system.mem_ctrls.wrQLenPdf::35                      7                       # What write queue length does an incoming req see
system.mem_ctrls.wrQLenPdf::36                      0                       # What write queue length does an incoming req see
system.mem_ctrls.wrQLenPdf::37                      0                       # What write queue length does an incoming req see
system.mem_ctrls.wrQLenPdf::38                      0                       # What write queue length does an incoming req see
system.mem_ctrls.wrQLenPdf::39                      0                       # What write queue length does an incoming req see
system.mem_ctrls.wrQLenPdf::40                      0                       # What write queue length does an incoming req see
system.mem_ctrls.wrQLenPdf::41                      0                       # What write queue length does an incoming req see
system.mem_ctrls.wrQLenPdf::42                      0                       # What write queue length does an incoming req see
system.mem_ctrls.wrQLenPdf::43                      0                       # What write queue length does an incoming req see
system.mem_ctrls.wrQLenPdf::44                      0                       # What write queue length does an incoming req see
system.mem_ctrls.wrQLenPdf::45                      0                       # What write queue length does an incoming req see
system.mem_ctrls.wrQLenPdf::46                      0                       # What write queue length does an incoming req see
system.mem_ctrls.wrQLenPdf::47                      0                       # What write queue length does an incoming req see
system.mem_ctrls.wrQLenPdf::48                      0                       # What write queue length does an incoming req see
system.mem_ctrls.wrQLenPdf::49                      0                       # What write queue length does an incoming req see
system.mem_ctrls.wrQLenPdf::50                      0                       # What write queue length does an incoming req see
system.mem_ctrls.wrQLenPdf::51                      0                       # What write queue length does an incoming req see
system.mem_ctrls.wrQLenPdf::52                      0                       # What write queue length does an incoming req see
system.mem_ctrls.wrQLenPdf::53                      0                       # What write queue length does an incoming req see
system.mem_ctrls.wrQLenPdf::54                      0                       # What write queue length does an incoming req see
system.mem_ctrls.wrQLenPdf::55                      0                       # What write queue length does an incoming req see
system.mem_ctrls.wrQLenPdf::56                      0                       # What write queue length does an incoming req see
system.mem_ctrls.wrQLenPdf::57                      0                       # What write queue length does an incoming req see
system.mem_ctrls.wrQLenPdf::58                      0                       # What write queue length does an incoming req see
system.mem_ctrls.wrQLenPdf::59                      0                       # What write queue length does an incoming req see
system.mem_ctrls.wrQLenPdf::60                      0                       # What write queue length does an incoming req see
system.mem_ctrls.wrQLenPdf::61                      0                       # What write queue length does an incoming req see
system.mem_ctrls.wrQLenPdf::62                      0                       # What write queue length does an incoming req see
system.mem_ctrls.wrQLenPdf::63                      0                       # What write queue length does an incoming req see
system.mem_ctrls.bytesPerActivate::samples        46178                       # Bytes accessed per row activation
system.mem_ctrls.bytesPerActivate::mean    439.017714                       # Bytes accessed per row activation
system.mem_ctrls.bytesPerActivate::gmean   280.219807                       # Bytes accessed per row activation
system.mem_ctrls.bytesPerActivate::stdev   393.917161                       # Bytes accessed per row activation
system.mem_ctrls.bytesPerActivate::0-127         1112      2.41%      2.41% # Bytes accessed per row activation
system.mem_ctrls.bytesPerActivate::128-255        24309     52.64%     55.05% # Bytes accessed per row activation
system.mem_ctrls.bytesPerActivate::256-383         2435      5.27%     60.32% # Bytes accessed per row activation
system.mem_ctrls.bytesPerActivate::384-511         1220      2.64%     62.97% # Bytes accessed per row activation
system.mem_ctrls.bytesPerActivate::512-639         1073      2.32%     65.29% # Bytes accessed per row activation
system.mem_ctrls.bytesPerActivate::640-767         1759      3.81%     69.10% # Bytes accessed per row activation
system.mem_ctrls.bytesPerActivate::768-895         1088      2.36%     71.45% # Bytes accessed per row activation
system.mem_ctrls.bytesPerActivate::896-1023          999      2.16%     73.62% # Bytes accessed per row activation
system.mem_ctrls.bytesPerActivate::1024-1151        12183     26.38%    100.00% # Bytes accessed per row activation
system.mem_ctrls.bytesPerActivate::total        46178                       # Bytes accessed per row activation
system.mem_ctrls.rdPerTurnAround::samples         6042                       # Reads before turning the bus around for writes
system.mem_ctrls.rdPerTurnAround::mean      35.993049                       # Reads before turning the bus around for writes
system.mem_ctrls.rdPerTurnAround::gmean     25.608475                       # Reads before turning the bus around for writes
system.mem_ctrls.rdPerTurnAround::stdev    118.381148                       # Reads before turning the bus around for writes
system.mem_ctrls.rdPerTurnAround::0-511          6041     99.98%     99.98% # Reads before turning the bus around for writes
system.mem_ctrls.rdPerTurnAround::8704-9215            1      0.02%    100.00% # Reads before turning the bus around for writes
system.mem_ctrls.rdPerTurnAround::total          6042                       # Reads before turning the bus around for writes
system.mem_ctrls.wrPerTurnAround::samples         6042                       # Writes before turning the bus around for reads
system.mem_ctrls.wrPerTurnAround::mean      16.414598                       # Writes before turning the bus around for reads
system.mem_ctrls.wrPerTurnAround::gmean     16.393761                       # Writes before turning the bus around for reads
system.mem_ctrls.wrPerTurnAround::stdev      0.851732                       # Writes before turning the bus around for reads
system.mem_ctrls.wrPerTurnAround::16             4835     80.02%     80.02% # Writes before turning the bus around for reads
system.mem_ctrls.wrPerTurnAround::17                7      0.12%     80.14% # Writes before turning the bus around for reads
system.mem_ctrls.wrPerTurnAround::18             1153     19.08%     99.22% # Writes before turning the bus around for reads
system.mem_ctrls.wrPerTurnAround::19                6      0.10%     99.32% # Writes before turning the bus around for reads
[...]
system.cpu.icache.ReadReq_mshr_misses::.cpu.inst          540                       # number of ReadReq MSHR misses
system.cpu.icache.ReadReq_mshr_misses::total          540                       # number of ReadReq MSHR misses
system.cpu.icache.ReadReq_mshr_miss_latency::.cpu.inst     37815500                       # number of ReadReq MSHR miss cycles
system.cpu.icache.ReadReq_mshr_miss_latency::total     37815500                       # number of ReadReq MSHR miss cycles
system.cpu.icache.ReadReq_mshr_miss_rate::.cpu.inst     0.000067                       # mshr miss rate for ReadReq accesses
system.cpu.icache.ReadReq_mshr_miss_rate::total     0.000067                       # mshr miss rate for ReadReq accesses
system.cpu.icache.ReadReq_avg_mshr_miss_latency::.cpu.inst 70028.703704                       # average ReadReq mshr miss latency
system.cpu.icache.ReadReq_avg_mshr_miss_latency::total 70028.703704                       # average ReadReq mshr miss latency
system.cpu.icache.tags.pwrStateResidencyTicks::UNDEFINED  80360784500                       # Cumulative time (in ticks) in various power states
system.cpu.icache.tags.tagsinuse           203.867735                       # Cycle average of tags in use
system.cpu.icache.tags.total_refs             8050905                       # Total number of references to valid blocks.
system.cpu.icache.tags.sampled_refs               540                       # Sample count of references to valid blocks.
system.cpu.icache.tags.avg_refs          14909.083333                       # Average number of references to valid blocks.
system.cpu.icache.tags.warmup_cycle             92500                       # Cycle when the warmup percentage was hit.
system.cpu.icache.tags.occ_blocks::.cpu.inst   203.867735                       # Average occupied blocks per requestor
system.cpu.icache.tags.occ_percent::.cpu.inst     0.796358                       # Average percentage of cache occupancy
system.cpu.icache.tags.occ_percent::total     0.796358                       # Average percentage of cache occupancy
system.cpu.icache.tags.occ_task_id_blocks::1024          238                       # Occupied blocks per task id
system.cpu.icache.tags.age_task_id_blocks_1024::3           52                       # Occupied blocks per task id
system.cpu.icache.tags.age_task_id_blocks_1024::4          186                       # Occupied blocks per task id
system.cpu.icache.tags.occ_task_id_percent::1024     0.929688                       # Percentage of cache occupancy per task id
system.cpu.icache.tags.tag_accesses          16102350                       # Number of tag accesses
system.cpu.icache.tags.data_accesses         16102350                       # Number of data accesses
system.cpu.dtb.walker.pwrStateResidencyTicks::UNDEFINED  80360784500                       # Cumulative time (in ticks) in various power states
system.cpu.dtb.stage2_mmu.stage2_tlb.walker.pwrStateResidencyTicks::UNDEFINED  80360784500                       # Cumulative time (in ticks) in various power states
system.cpu.dcache.pwrStateResidencyTicks::UNDEFINED  80360784500                       # Cumulative time (in ticks) in various power states
system.cpu.dcache.demand_hits::.cpu.data     51550854                       # number of demand (read+write) hits
system.cpu.dcache.demand_hits::total         51550854                       # number of demand (read+write) hits
system.cpu.dcache.overall_hits::.cpu.data     51551454                       # number of overall hits
system.cpu.dcache.overall_hits::total        51551454                       # number of overall hits
system.cpu.dcache.demand_misses::.cpu.data       504449                       # number of demand (read+write) misses
system.cpu.dcache.demand_misses::total         504449                       # number of demand (read+write) misses
system.cpu.dcache.overall_misses::.cpu.data       512268                       # number of overall misses
system.cpu.dcache.overall_misses::total        512268                       # number of overall misses
system.cpu.dcache.demand_miss_latency::.cpu.data  16922785500                       # number of demand (read+write) miss cycles
system.cpu.dcache.demand_miss_latency::total  16922785500                       # number of demand (read+write) miss cycles
system.cpu.dcache.overall_miss_latency::.cpu.data  16922785500                       # number of overall miss cycles
system.cpu.dcache.overall_miss_latency::total  16922785500                       # number of overall miss cycles
system.cpu.dcache.demand_accesses::.cpu.data     52055303                       # number of demand (read+write) accesses
system.cpu.dcache.demand_accesses::total     52055303                       # number of demand (read+write) accesses
system.cpu.dcache.overall_accesses::.cpu.data     52063722                       # number of overall (read+write) accesses
system.cpu.dcache.overall_accesses::total     52063722                       # number of overall (read+write) accesses
system.cpu.dcache.demand_miss_rate::.cpu.data     0.009691                       # miss rate for demand accesses
system.cpu.dcache.demand_miss_rate::total     0.009691                       # miss rate for demand accesses
system.cpu.dcache.overall_miss_rate::.cpu.data     0.009839                       # miss rate for overall accesses
system.cpu.dcache.overall_miss_rate::total     0.009839                       # miss rate for overall accesses
system.cpu.dcache.demand_avg_miss_latency::.cpu.data 33547.069178                       # average overall miss latency
system.cpu.dcache.demand_avg_miss_latency::total 33547.069178                       # average overall miss latency
system.cpu.dcache.overall_avg_miss_latency::.cpu.data 33035.023659                       # average overall miss latency
system.cpu.dcache.overall_avg_miss_latency::total 33035.023659                       # average overall miss latency
system.cpu.dcache.blocked_cycles::no_mshrs            0                       # number of cycles access was blocked
system.cpu.dcache.blocked_cycles::no_targets            0                       # number of cycles access was blocked
system.cpu.dcache.blocked::no_mshrs                 0                       # number of cycles access was blocked
system.cpu.dcache.blocked::no_targets               0                       # number of cycles access was blocked
system.cpu.dcache.avg_blocked_cycles::no_mshrs          nan                       # average number of cycles each access was blocked
system.cpu.dcache.avg_blocked_cycles::no_targets          nan                       # average number of cycles each access was blocked
system.cpu.dcache.writebacks::.writebacks       440204                       # number of writebacks
system.cpu.dcache.writebacks::total            440204                       # number of writebacks
system.cpu.dcache.demand_mshr_hits::.cpu.data        35352                       # number of demand (read+write) MSHR hits
system.cpu.dcache.demand_mshr_hits::total        35352                       # number of demand (read+write) MSHR hits
system.cpu.dcache.overall_mshr_hits::.cpu.data        35352                       # number of overall MSHR hits
system.cpu.dcache.overall_mshr_hits::total        35352                       # number of overall MSHR hits
system.cpu.dcache.demand_mshr_misses::.cpu.data       469097                       # number of demand (read+write) MSHR misses
system.cpu.dcache.demand_mshr_misses::total       469097                       # number of demand (read+write) MSHR misses
system.cpu.dcache.overall_mshr_misses::.cpu.data       473052                       # number of overall MSHR misses
system.cpu.dcache.overall_mshr_misses::total       473052                       # number of overall MSHR misses
system.cpu.dcache.demand_mshr_miss_latency::.cpu.data  13981553500                       # number of demand (read+write) MSHR miss cycles
system.cpu.dcache.demand_mshr_miss_latency::total  13981553500                       # number of demand (read+write) MSHR miss cycles
system.cpu.dcache.overall_mshr_miss_latency::.cpu.data  14316851000                       # number of overall MSHR miss cycles
system.cpu.dcache.overall_mshr_miss_latency::total  14316851000                       # number of overall MSHR miss cycles
system.cpu.dcache.demand_mshr_miss_rate::.cpu.data     0.009012                       # mshr miss rate for demand accesses
system.cpu.dcache.demand_mshr_miss_rate::total     0.009012                       # mshr miss rate for demand accesses
system.cpu.dcache.overall_mshr_miss_rate::.cpu.data     0.009086                       # mshr miss rate for overall accesses
system.cpu.dcache.overall_mshr_miss_rate::total     0.009086                       # mshr miss rate for overall accesses
system.cpu.dcache.demand_avg_mshr_miss_latency::.cpu.data 29805.250300                       # average overall mshr miss latency
system.cpu.dcache.demand_avg_mshr_miss_latency::total 29805.250300                       # average overall mshr miss latency
system.cpu.dcache.overall_avg_mshr_miss_latency::.cpu.data 30264.856718                       # average overall mshr miss latency
system.cpu.dcache.overall_avg_mshr_miss_latency::total 30264.856718                       # average overall mshr miss latency
system.cpu.dcache.replacements                 472027                       # number of replacements
system.cpu.dcache.ReadReq_hits::.cpu.data     40851370                       # number of ReadReq hits
system.cpu.dcache.ReadReq_hits::total        40851370                       # number of ReadReq hits
system.cpu.dcache.ReadReq_misses::.cpu.data       253841                       # number of ReadReq misses
system.cpu.dcache.ReadReq_misses::total        253841                       # number of ReadReq misses
system.cpu.dcache.ReadReq_miss_latency::.cpu.data   5316706500                       # number of ReadReq miss cycles
system.cpu.dcache.ReadReq_miss_latency::total   5316706500                       # number of ReadReq miss cycles
system.cpu.dcache.ReadReq_accesses::.cpu.data     41105211                       # number of ReadReq accesses(hits+misses)
system.cpu.dcache.ReadReq_accesses::total     41105211                       # number of ReadReq accesses(hits+misses)
system.cpu.dcache.ReadReq_miss_rate::.cpu.data     0.006175                       # miss rate for ReadReq accesses
system.cpu.dcache.ReadReq_miss_rate::total     0.006175                       # miss rate for ReadReq accesses
system.cpu.dcache.ReadReq_avg_miss_latency::.cpu.data 20945.026611                       # average ReadReq miss latency
system.cpu.dcache.ReadReq_avg_miss_latency::total 20945.026611                       # average ReadReq miss latency
system.cpu.dcache.ReadReq_mshr_hits::.cpu.data         2658                       # number of ReadReq MSHR hits
system.cpu.dcache.ReadReq_mshr_hits::total         2658                       # number of ReadReq MSHR hits
system.cpu.dcache.ReadReq_mshr_misses::.cpu.data       251183                       # number of ReadReq MSHR misses
system.cpu.dcache.ReadReq_mshr_misses::total       251183                       # number of ReadReq MSHR misses
system.cpu.dcache.ReadReq_mshr_miss_latency::.cpu.data   4910999500                       # number of ReadReq MSHR miss cycles
system.cpu.dcache.ReadReq_mshr_miss_latency::total   4910999500                       # number of ReadReq MSHR miss cycles
system.cpu.dcache.ReadReq_mshr_miss_rate::.cpu.data     0.006111                       # mshr miss rate for ReadReq accesses
system.cpu.dcache.ReadReq_mshr_miss_rate::total     0.006111                       # mshr miss rate for ReadReq accesses
system.cpu.dcache.ReadReq_avg_mshr_miss_latency::.cpu.data 19551.480395                       # average ReadReq mshr miss latency
system.cpu.dcache.ReadReq_avg_mshr_miss_latency::total 19551.480395                       # average ReadReq mshr miss latency
system.cpu.dcache.WriteReq_hits::.cpu.data     10699484                       # number of WriteReq hits
system.cpu.dcache.WriteReq_hits::total       10699484                       # number of WriteReq hits
system.cpu.dcache.WriteReq_misses::.cpu.data       250608                       # number of WriteReq misses
system.cpu.dcache.WriteReq_misses::total       250608                       # number of WriteReq misses
system.cpu.dcache.WriteReq_miss_latency::.cpu.data  11606079000                       # number of WriteReq miss cycles
system.cpu.dcache.WriteReq_miss_latency::total  11606079000                       # number of WriteReq miss cycles
system.cpu.dcache.WriteReq_accesses::.cpu.data     10950092                       # number of WriteReq accesses(hits+misses)
system.cpu.dcache.WriteReq_accesses::total     10950092                       # number of WriteReq accesses(hits+misses)
system.cpu.dcache.WriteReq_miss_rate::.cpu.data     0.022886                       # miss rate for WriteReq accesses
system.cpu.dcache.WriteReq_miss_rate::total     0.022886                       # miss rate for WriteReq accesses
system.cpu.dcache.WriteReq_avg_miss_latency::.cpu.data 46311.685980                       # average WriteReq miss latency
system.cpu.dcache.WriteReq_avg_miss_latency::total 46311.685980                       # average WriteReq miss latency
system.cpu.dcache.WriteReq_mshr_hits::.cpu.data        32694                       # number of WriteReq MSHR hits
system.cpu.dcache.WriteReq_mshr_hits::total        32694                       # number of WriteReq MSHR hits
system.cpu.dcache.WriteReq_mshr_misses::.cpu.data       217914                       # number of WriteReq MSHR misses
system.cpu.dcache.WriteReq_mshr_misses::total       217914                       # number of WriteReq MSHR misses
system.cpu.dcache.WriteReq_mshr_miss_latency::.cpu.data   9070554000                       # number of WriteReq MSHR miss cycles
system.cpu.dcache.WriteReq_mshr_miss_latency::total   9070554000                       # number of WriteReq MSHR miss cycles
system.cpu.dcache.WriteReq_mshr_miss_rate::.cpu.data     0.019901                       # mshr miss rate for WriteReq accesses
system.cpu.dcache.WriteReq_mshr_miss_rate::total     0.019901                       # mshr miss rate for WriteReq accesses
system.cpu.dcache.WriteReq_avg_mshr_miss_latency::.cpu.data 41624.466533                       # average WriteReq mshr miss latency
system.cpu.dcache.WriteReq_avg_mshr_miss_latency::total 41624.466533                       # average WriteReq mshr miss latency
system.cpu.dcache.SoftPFReq_hits::.cpu.data          600                       # number of SoftPFReq hits
system.cpu.dcache.SoftPFReq_hits::total           600                       # number of SoftPFReq hits
system.cpu.dcache.SoftPFReq_misses::.cpu.data         7819                       # number of SoftPFReq misses
system.cpu.dcache.SoftPFReq_misses::total         7819                       # number of SoftPFReq misses
system.cpu.dcache.SoftPFReq_accesses::.cpu.data         8419                       # number of SoftPFReq accesses(hits+misses)
system.cpu.dcache.SoftPFReq_accesses::total         8419                       # number of SoftPFReq accesses(hits+misses)
system.cpu.dcache.SoftPFReq_miss_rate::.cpu.data     0.928733                       # miss rate for SoftPFReq accesses
system.cpu.dcache.SoftPFReq_miss_rate::total     0.928733                       # miss rate for SoftPFReq accesses
system.cpu.dcache.SoftPFReq_mshr_misses::.cpu.data         3955                       # number of SoftPFReq MSHR misses
system.cpu.dcache.SoftPFReq_mshr_misses::total         3955                       # number of SoftPFReq MSHR misses
system.cpu.dcache.SoftPFReq_mshr_miss_latency::.cpu.data    335297500                       # number of SoftPFReq MSHR miss cycles
system.cpu.dcache.SoftPFReq_mshr_miss_latency::total    335297500                       # number of SoftPFReq MSHR miss cycles
system.cpu.dcache.SoftPFReq_mshr_miss_rate::.cpu.data     0.469771                       # mshr miss rate for SoftPFReq accesses
system.cpu.dcache.SoftPFReq_mshr_miss_rate::total     0.469771                       # mshr miss rate for SoftPFReq accesses
system.cpu.dcache.SoftPFReq_avg_mshr_miss_latency::.cpu.data 84778.128951                       # average SoftPFReq mshr miss latency
system.cpu.dcache.SoftPFReq_avg_mshr_miss_latency::total 84778.128951                       # average SoftPFReq mshr miss latency
system.cpu.dcache.LoadLockedReq_hits::.cpu.data           38                       # number of LoadLockedReq hits
system.cpu.dcache.LoadLockedReq_hits::total           38                       # number of LoadLockedReq hits
system.cpu.dcache.LoadLockedReq_accesses::.cpu.data           38                       # number of LoadLockedReq accesses(hits+misses)
system.cpu.dcache.LoadLockedReq_accesses::total           38                       # number of LoadLockedReq accesses(hits+misses)
system.cpu.dcache.StoreCondReq_hits::.cpu.data           38                       # number of StoreCondReq hits
system.cpu.dcache.StoreCondReq_hits::total           38                       # number of StoreCondReq hits
system.cpu.dcache.StoreCondReq_accesses::.cpu.data           38                       # number of StoreCondReq accesses(hits+misses)
system.cpu.dcache.StoreCondReq_accesses::total           38                       # number of StoreCondReq accesses(hits+misses)
system.cpu.dcache.tags.pwrStateResidencyTicks::UNDEFINED  80360784500                       # Cumulative time (in ticks) in various power states
system.cpu.dcache.tags.tagsinuse          1005.741995                       # Cycle average of tags in use
system.cpu.dcache.tags.total_refs            52024581                       # Total number of references to valid blocks.
system.cpu.dcache.tags.sampled_refs            473051                       # Sample count of references to valid blocks.
system.cpu.dcache.tags.avg_refs            109.976685                       # Average number of references to valid blocks.
system.cpu.dcache.tags.warmup_cycle            186500                       # Cycle when the warmup percentage was hit.
system.cpu.dcache.tags.occ_blocks::.cpu.data  1005.741995                       # Average occupied blocks per requestor
system.cpu.dcache.tags.occ_percent::.cpu.data     0.982170                       # Average percentage of cache occupancy
system.cpu.dcache.tags.occ_percent::total     0.982170                       # Average percentage of cache occupancy
system.cpu.dcache.tags.occ_task_id_blocks::1024         1024                       # Occupied blocks per task id
system.cpu.dcache.tags.age_task_id_blocks_1024::0          300                       # Occupied blocks per task id
system.cpu.dcache.tags.age_task_id_blocks_1024::1          472                       # Occupied blocks per task id
system.cpu.dcache.tags.age_task_id_blocks_1024::2          250                       # Occupied blocks per task id
system.cpu.dcache.tags.age_task_id_blocks_1024::3            1                       # Occupied blocks per task id
system.cpu.dcache.tags.age_task_id_blocks_1024::4            1                       # Occupied blocks per task id
system.cpu.dcache.tags.occ_task_id_percent::1024            1                       # Percentage of cache occupancy per task id
system.cpu.dcache.tags.tag_accesses         208728243                       # Number of tag accesses
system.cpu.dcache.tags.data_accesses        208728243                       # Number of data accesses
system.cpu.itb.walker.pwrStateResidencyTicks::UNDEFINED  80360784500                       # Cumulative time (in ticks) in various power states
system.cpu.itb.stage2_mmu.stage2_tlb.walker.pwrStateResidencyTicks::UNDEFINED  80360784500                       # Cumulative time (in ticks) in various power states

---------- End Simulation Statistics   ----------
