
---------- Begin Simulation Statistics ----------
final_tick                                83313333500                       # Number of ticks from beginning of simulation (restored from checkpoints and never reset)
host_inst_rate                                 334416                       # Simulator instruction rate (inst/s)
host_mem_usage                                 687924                       # Number of bytes of host memory used
host_op_rate                                   335072                       # Simulator op (including micro ops) rate (op/s)
host_seconds                                   299.03                       # Real time elapsed on the host
host_tick_rate                              278612596                       # Simulator tick rate (ticks/s)
sim_freq                                 1000000000000                       # Frequency of simulated ticks
sim_insts                                   100000000                       # Number of instructions simulated
sim_ops                                     100196369                       # Number of ops (including micro ops) simulated
sim_seconds                                  0.083313                       # Number of seconds simulated
sim_ticks                                 83313333500                       # Number of ticks simulated
system.cpu.branchPred.BTBCorrect                    0                       # Number of correct BTB predictions (this stat may not work properly.
system.cpu.branchPred.BTBHitPct             99.619229                       # BTB Hit Percentage
system.cpu.branchPred.BTBHits                 2095615                       # Number of BTB hits
system.cpu.branchPred.BTBLookups              2103625                       # Number of BTB lookups
system.cpu.branchPred.RASInCorrect                  6                       # Number of incorrect RAS predictions.
system.cpu.branchPred.condIncorrect             81391                       # Number of conditional branches incorrect
system.cpu.branchPred.condPredicted           3728090                       # Number of conditional branches predicted
system.cpu.branchPred.indirectHits                293                       # Number of indirect target hits.
system.cpu.branchPred.indirectLookups             994                       # Number of indirect predictor lookups.
system.cpu.branchPred.indirectMisses              701                       # Number of indirect misses.
system.cpu.branchPred.lookups                 4478193                       # Number of BP lookups
system.cpu.branchPred.usedRAS                   65351                       # Number of times the RAS was used to get a target.
system.cpu.branchPredindirectMispredicted          168                       # Number of mispredicted indirect branches.
system.cpu.committedInsts                   100000000                       # Number of instructions committed
system.cpu.committedOps                     100196369                       # Number of ops (including micro ops) committed
system.cpu.cpi                               1.666267                       # CPI: cycles per instruction
system.cpu.discardedOps                        190794                       # Number of ops (including micro ops) which were discarded before commit
system.cpu.dtb.accesses                             0                       # DTB accesses
system.cpu.dtb.align_faults                         0                       # Number of TLB faults due to alignment restrictions
system.cpu.dtb.domain_faults                        0                       # Number of TLB faults due to domain restrictions
system.cpu.dtb.flush_entries                        0                       # Number of entries that have been flushed from TLB
system.cpu.dtb.flush_tlb                            0                       # Number of times complete TLB was flushed
system.cpu.dtb.flush_tlb_asid                       0                       # Number of times TLB was flushed by ASID
system.cpu.dtb.flush_tlb_mva                        0                       # Number of times TLB was flushed by MVA
system.cpu.dtb.flush_tlb_mva_asid                   0                       # Number of times TLB was flushed by MVA & ASID
system.cpu.dtb.hits                                 0                       # DTB hits
system.cpu.dtb.inst_accesses                        0                       # ITB inst accesses
system.cpu.dtb.inst_hits                            0                       # ITB inst hits
system.cpu.dtb.inst_misses                          0                       # ITB inst misses
system.cpu.dtb.misses                               0                       # DTB misses
system.cpu.dtb.perms_faults                         0                       # Number of TLB faults due to permissions restrictions
system.cpu.dtb.prefetch_faults                      0                       # Number of TLB faults due to prefetch
system.cpu.dtb.read_accesses                        0                       # DTB read accesses
system.cpu.dtb.read_hits                            0                       # DTB read hits
system.cpu.dtb.read_misses                          0                       # DTB read misses
system.cpu.dtb.stage2_mmu.stage2_tlb.accesses            0                       # DTB accesses
system.cpu.dtb.stage2_mmu.stage2_tlb.align_faults            0                       # Number of TLB faults due to alignment restrictions
system.cpu.dtb.stage2_mmu.stage2_tlb.domain_faults            0                       # Number of TLB faults due to domain restrictions
system.cpu.dtb.stage2_mmu.stage2_tlb.flush_entries            0                       # Number of entries that have been flushed from TLB
system.cpu.dtb.stage2_mmu.stage2_tlb.flush_tlb            0                       # Number of times complete TLB was flushed
system.cpu.dtb.stage2_mmu.stage2_tlb.flush_tlb_asid            0                       # Number of times TLB was flushed by ASID
system.cpu.dtb.stage2_mmu.stage2_tlb.flush_tlb_mva            0                       # Number of times TLB was flushed by MVA
system.cpu.dtb.stage2_mmu.stage2_tlb.flush_tlb_mva_asid            0                       # Number of times TLB was flushed by MVA & ASID
system.cpu.dtb.stage2_mmu.stage2_tlb.hits            0                       # DTB hits
system.cpu.dtb.stage2_mmu.stage2_tlb.inst_accesses            0                       # ITB inst accesses
system.cpu.dtb.stage2_mmu.stage2_tlb.inst_hits            0                       # ITB inst hits
system.cpu.dtb.stage2_mmu.stage2_tlb.inst_misses            0                       # ITB inst misses
system.cpu.dtb.stage2_mmu.stage2_tlb.misses            0                       # DTB misses
system.cpu.dtb.stage2_mmu.stage2_tlb.perms_faults            0                       # Number of TLB faults due to permissions restrictions
system.cpu.dtb.stage2_mmu.stage2_tlb.prefetch_faults            0                       # Number of TLB faults due to prefetch
system.cpu.dtb.stage2_mmu.stage2_tlb.read_accesses            0                       # DTB read accesses
system.cpu.dtb.stage2_mmu.stage2_tlb.read_hits            0                       # DTB read hits
system.cpu.dtb.stage2_mmu.stage2_tlb.read_misses            0                       # DTB read misses
system.cpu.dtb.stage2_mmu.stage2_tlb.walker.walkRequestOrigin_Requested::Data            0                       # Table walker requests started/completed, data/inst
system.cpu.dtb.stage2_mmu.stage2_tlb.walker.walkRequestOrigin_Requested::Inst            0                       # Table walker requests started/completed, data/inst
system.cpu.dtb.stage2_mmu.stage2_tlb.walker.walkRequestOrigin_Requested::total            0                       # Table walker requests started/completed, data/inst
system.cpu.dtb.stage2_mmu.stage2_tlb.walker.walkRequestOrigin_Completed::Data            0                       # Table walker requests started/completed, data/inst
system.cpu.dtb.stage2_mmu.stage2_tlb.walker.walkRequestOrigin_Completed::Inst            0                       # Table walker requests started/completed, data/inst
system.cpu.dtb.stage2_mmu.stage2_tlb.walker.walkRequestOrigin_Completed::total            0                       # Table walker requests started/completed, data/inst
system.cpu.dtb.stage2_mmu.stage2_tlb.walker.walkRequestOrigin::total            0                       # Table walker requests started/completed, data/inst
system.cpu.dtb.stage2_mmu.stage2_tlb.walker.walks            0                       # Table walker walks requested
system.cpu.dtb.stage2_mmu.stage2_tlb.write_accesses            0                       # DTB write accesses
system.cpu.dtb.stage2_mmu.stage2_tlb.write_hits            0                       # DTB write hits
system.cpu.dtb.stage2_mmu.stage2_tlb.write_misses            0                       # DTB write misses
system.cpu.dtb.walker.walkRequestOrigin_Requested::Data            0                       # Table walker requests started/completed, data/inst
system.cpu.dtb.walker.walkRequestOrigin_Requested::Inst            0                       # Table walker requests started/completed, data/inst
system.cpu.dtb.walker.walkRequestOrigin_Requested::total            0                       # Table walker requests started/completed, data/inst
system.cpu.dtb.walker.walkRequestOrigin_Completed::Data            0                       # Table walker requests started/completed, data/inst
system.cpu.dtb.walker.walkRequestOrigin_Completed::Inst            0                       # Table walker requests started/completed, data/inst
system.cpu.dtb.walker.walkRequestOrigin_Completed::total            0                       # Table walker requests started/completed, data/inst
system.cpu.dtb.walker.walkRequestOrigin::total            0                       # Table walker requests started/completed, data/inst
system.cpu.dtb.walker.walks                         0                       # Table walker walks requested
system.cpu.dtb.write_accesses                       0                       # DTB write accesses
system.cpu.dtb.write_hits                           0                       # DTB write hits
system.cpu.dtb.write_misses                         0                       # DTB write misses
system.cpu.fetch2.amo_instructions                  0                       # Number of memory atomic instructions successfully decoded
system.cpu.fetch2.fp_instructions                   0                       # Number of floating point instructions successfully decoded
system.cpu.fetch2.int_instructions           42610469                       # Number of integer instructions successfully decoded
system.cpu.fetch2.load_instructions          43403287                       # Number of memory load instructions successfully decoded
system.cpu.fetch2.store_instructions         11001629                       # Number of memory store instructions successfully decoded
system.cpu.fetch2.vec_instructions                  0                       # Number of SIMD instructions successfully decoded
system.cpu.idleCycles                        34101810                       # Total number of cycles that the object has spent stopped
system.cpu.ipc                               0.600144                       # IPC: instructions per cycle
system.cpu.itb.accesses                             0                       # DTB accesses
system.cpu.itb.align_faults                         0                       # Number of TLB faults due to alignment restrictions
system.cpu.itb.domain_faults                        0                       # Number of TLB faults due to domain restrictions
system.cpu.itb.flush_entries                        0                       # Number of entries that have been flushed from TLB
system.cpu.itb.flush_tlb                            0                       # Number of times complete TLB was flushed
system.cpu.itb.flush_tlb_asid                       0                       # Number of times TLB was flushed by ASID
system.cpu.itb.flush_tlb_mva                        0                       # Number of times TLB was flushed by MVA
system.cpu.itb.flush_tlb_mva_asid                   0                       # Number of times TLB was flushed by MVA & ASID
system.cpu.itb.hits                                 0                       # DTB hits
system.cpu.itb.inst_accesses                        0                       # ITB inst accesses
system.cpu.itb.inst_hits                            0                       # ITB inst hits
system.cpu.itb.inst_misses                          0                       # ITB inst misses
system.cpu.itb.misses                               0                       # DTB misses
system.cpu.itb.perms_faults                         0                       # Number of TLB faults due to permissions restrictions
system.cpu.itb.prefetch_faults                      0                       # Number of TLB faults due to prefetch
system.cpu.itb.read_accesses                        0                       # DTB read accesses
system.cpu.itb.read_hits                            0                       # DTB read hits
system.cpu.itb.read_misses                          0                       # DTB read misses
system.cpu.itb.stage2_mmu.stage2_tlb.accesses            0                       # DTB accesses
system.cpu.itb.stage2_mmu.stage2_tlb.align_faults            0                       # Number of TLB faults due to alignment restrictions
system.cpu.itb.stage2_mmu.stage2_tlb.domain_faults            0                       # Number of TLB faults due to domain restrictions
system.cpu.itb.stage2_mmu.stage2_tlb.flush_entries            0                       # Number of entries that have been flushed from TLB
system.cpu.itb.stage2_mmu.stage2_tlb.flush_tlb            0                       # Number of times complete TLB was flushed
system.cpu.itb.stage2_mmu.stage2_tlb.flush_tlb_asid            0                       # Number of times TLB was flushed by ASID
system.cpu.itb.stage2_mmu.stage2_tlb.flush_tlb_mva            0                       # Number of times TLB was flushed by MVA
system.cpu.itb.stage2_mmu.stage2_tlb.flush_tlb_mva_asid            0                       # Number of times TLB was flushed by MVA & ASID
system.cpu.itb.stage2_mmu.stage2_tlb.hits            0                       # DTB hits
system.cpu.itb.stage2_mmu.stage2_tlb.inst_accesses            0                       # ITB inst accesses
system.cpu.itb.stage2_mmu.stage2_tlb.inst_hits            0                       # ITB inst hits
system.cpu.itb.stage2_mmu.stage2_tlb.inst_misses            0                       # ITB inst misses
system.cpu.itb.stage2_mmu.stage2_tlb.misses            0                       # DTB misses
system.cpu.itb.stage2_mmu.stage2_tlb.perms_faults            0                       # Number of TLB faults due to permissions restrictions
system.cpu.itb.stage2_mmu.stage2_tlb.prefetch_faults            0                       # Number of TLB faults due to prefetch
system.cpu.itb.stage2_mmu.stage2_tlb.read_accesses            0                       # DTB read accesses
system.cpu.itb.stage2_mmu.stage2_tlb.read_hits            0                       # DTB read hits
system.cpu.itb.stage2_mmu.stage2_tlb.read_misses            0                       # DTB read misses
system.cpu.itb.stage2_mmu.stage2_tlb.walker.walkRequestOrigin_Requested::Data            0                       # Table walker requests started/completed, data/inst
system.cpu.itb.stage2_mmu.stage2_tlb.walker.walkRequestOrigin_Requested::Inst            0                       # Table walker requests started/completed, data/inst
system.cpu.itb.stage2_mmu.stage2_tlb.walker.walkRequestOrigin_Requested::total            0                       # Table walker requests started/completed, data/inst
system.cpu.itb.stage2_mmu.stage2_tlb.walker.walkRequestOrigin_Completed::Data            0                       # Table walker requests started/completed, data/inst
system.cpu.itb.stage2_mmu.stage2_tlb.walker.walkRequestOrigin_Completed::Inst            0                       # Table walker requests started/completed, data/inst
system.cpu.itb.stage2_mmu.stage2_tlb.walker.walkRequestOrigin_Completed::total            0                       # Table walker requests started/completed, data/inst
system.cpu.itb.stage2_mmu.stage2_tlb.walker.walkRequestOrigin::total            0                       # Table walker requests started/completed, data/inst
system.cpu.itb.stage2_mmu.stage2_tlb.walker.walks            0                       # Table walker walks requested
system.cpu.itb.stage2_mmu.stage2_tlb.write_accesses            0                       # DTB write accesses
system.cpu.itb.stage2_mmu.stage2_tlb.write_hits            0                       # DTB write hits
system.cpu.itb.stage2_mmu.stage2_tlb.write_misses            0                       # DTB write misses
system.cpu.itb.walker.walkRequestOrigin_Requested::Data            0                       # Table walker requests started/completed, data/inst
system.cpu.itb.walker.walkRequestOrigin_Requested::Inst            0                       # Table walker requests started/completed, data/inst
system.cpu.itb.walker.walkRequestOrigin_Requested::total            0                       # Table walker requests started/completed, data/inst
system.cpu.itb.walker.walkRequestOrigin_Completed::Data            0                       # Table walker requests started/completed, data/inst
system.cpu.itb.walker.walkRequestOrigin_Completed::Inst            0                       # Table walker requests started/completed, data/inst
system.cpu.itb.walker.walkRequestOrigin_Completed::total            0                       # Table walker requests started/completed, data/inst
system.cpu.itb.walker.walkRequestOrigin::total            0                       # Table walker requests started/completed, data/inst
system.cpu.itb.walker.walks                         0                       # Table walker walks requested
system.cpu.itb.write_accesses                       0                       # DTB write accesses
system.cpu.itb.write_hits                           0                       # DTB write hits
system.cpu.itb.write_misses                         0                       # DTB write misses
system.cpu.numCycles                        166626667                       # number of cpu cycles simulated
system.cpu.numFetchSuspends                         0                       # Number of times Execute suspended instruction fetching
system.cpu.numWorkItemsCompleted                    0                       # number of work items this cpu completed
system.cpu.numWorkItemsStarted                      0                       # number of work items this cpu started
system.cpu.op_class_0::No_OpClass                   0      0.00%      0.00% # Class of committed instruction
system.cpu.op_class_0::IntAlu                46531437     46.44%     46.44% # Class of committed instruction
system.cpu.op_class_0::IntMult                  20720      0.02%     46.46% # Class of committed instruction
system.cpu.op_class_0::IntDiv                       0      0.00%     46.46% # Class of committed instruction
system.cpu.op_class_0::FloatAdd                     0      0.00%     46.46% # Class of committed instruction
system.cpu.op_class_0::FloatCmp                     0      0.00%     46.46% # Class of committed instruction
system.cpu.op_class_0::FloatCvt                     0      0.00%     46.46% # Class of committed instruction
system.cpu.op_class_0::FloatMult                    0      0.00%     46.46% # Class of committed instruction
system.cpu.op_class_0::FloatMultAcc                 0      0.00%     46.46% # Class of committed instruction
system.cpu.op_class_0::FloatDiv                     0      0.00%     46.46% # Class of committed instruction
system.cpu.op_class_0::FloatMisc                    0      0.00%     46.46% # Class of committed instruction
system.cpu.op_class_0::FloatSqrt                    0      0.00%     46.46% # Class of committed instruction
system.cpu.op_class_0::SimdAdd                      0      0.00%     46.46% # Class of committed instruction
system.cpu.op_class_0::SimdAddAcc                   0      0.00%     46.46% # Class of committed instruction
system.cpu.op_class_0::SimdAlu                      0      0.00%     46.46% # Class of committed instruction
system.cpu.op_class_0::SimdCmp                      0      0.00%     46.46% # Class of committed instruction
system.cpu.op_class_0::SimdCvt                      0      0.00%     46.46% # Class of committed instruction
system.cpu.op_class_0::SimdMisc                     0      0.00%     46.46% # Class of committed instruction
system.cpu.op_class_0::SimdMult                     0      0.00%     46.46% # Class of committed instruction
system.cpu.op_class_0::SimdMultAcc                  0      0.00%     46.46% # Class of committed instruction
system.cpu.op_class_0::SimdShift                    0      0.00%     46.46% # Class of committed instruction
system.cpu.op_class_0::SimdShiftAcc                 0      0.00%     46.46% # Class of committed instruction
system.cpu.op_class_0::SimdDiv                      0      0.00%     46.46% # Class of committed instruction
system.cpu.op_class_0::SimdSqrt                     0      0.00%     46.46% # Class of committed instruction
system.cpu.op_class_0::SimdFloatAdd                 0      0.00%     46.46% # Class of committed instruction
system.cpu.op_class_0::SimdFloatAlu                 0      0.00%     46.46% # Class of committed instruction
system.cpu.op_class_0::SimdFloatCmp                 0      0.00%     46.46% # Class of committed instruction
system.cpu.op_class_0::SimdFloatCvt                 0      0.00%     46.46% # Class of committed instruction
system.cpu.op_class_0::SimdFloatDiv                 0      0.00%     46.46% # Class of committed instruction
system.cpu.op_class_0::SimdFloatMisc               18      0.00%     46.46% # Class of committed instruction
system.cpu.op_class_0::SimdFloatMult                0      0.00%     46.46% # Class of committed instruction
system.cpu.op_class_0::SimdFloatMultAcc             0      0.00%     46.46% # Class of committed instruction
system.cpu.op_class_0::SimdFloatSqrt                0      0.00%     46.46% # Class of committed instruction
system.cpu.op_class_0::SimdReduceAdd                0      0.00%     46.46% # Class of committed instruction
system.cpu.op_class_0::SimdReduceAlu                0      0.00%     46.46% # Class of committed instruction
system.cpu.op_class_0::SimdReduceCmp                0      0.00%     46.46% # Class of committed instruction
system.cpu.op_class_0::SimdFloatReduceAdd            0      0.00%     46.46% # Class of committed instruction
system.cpu.op_class_0::SimdFloatReduceCmp            0      0.00%     46.46% # Class of committed instruction
system.cpu.op_class_0::SimdAes                      0      0.00%     46.46% # Class of committed instruction
system.cpu.op_class_0::SimdAesMix                   0      0.00%     46.46% # Class of committed instruction
system.cpu.op_class_0::SimdSha1Hash                 0      0.00%     46.46% # Class of committed instruction
system.cpu.op_class_0::SimdSha1Hash2                0      0.00%     46.46% # Class of committed instruction
system.cpu.op_class_0::SimdSha256Hash               0      0.00%     46.46% # Class of committed instruction
system.cpu.op_class_0::SimdSha256Hash2              0      0.00%     46.46% # Class of committed instruction
system.cpu.op_class_0::SimdShaSigma2                0      0.00%     46.46% # Class of committed instruction
system.cpu.op_class_0::SimdShaSigma3                0      0.00%     46.46% # Class of committed instruction
system.cpu.op_class_0::SimdPredAlu                  0      0.00%     46.46% # Class of committed instruction
system.cpu.op_class_0::MemRead               42693580     42.61%     89.07% # Class of committed instruction
system.cpu.op_class_0::MemWrite              10950614     10.93%    100.00% # Class of committed instruction
system.cpu.op_class_0::FloatMemRead                 0      0.00%    100.00% # Class of committed instruction
system.cpu.op_class_0::FloatMemWrite                0      0.00%    100.00% # Class of committed instruction
system.cpu.op_class_0::IprAccess                    0      0.00%    100.00% # Class of committed instruction
system.cpu.op_class_0::InstPrefetch                 0      0.00%    100.00% # Class of committed instruction
system.cpu.op_class_0::total                100196369                       # Class of committed instruction
system.cpu.tickCycles                       132524857                       # Number of cycles that the object actually ticked
system.cpu.workload.numSyscalls                    84                       # Number of system calls
system.membus.snoop_filter.hit_multi_requests            0                       # Number of requests hitting in the snoop filter with multiple (>1) holders of the requested data.
system.membus.snoop_filter.hit_multi_snoops            0                       # Number of snoops hitting in the snoop filter with multiple (>1) holders of the requested data.
system.membus.snoop_filter.hit_single_requests       106665                       # Number of requests hitting in the snoop filter with a single holder of the requested data.
system.membus.snoop_filter.hit_single_snoops            0                       # Number of snoops hitting in the snoop filter with a single holder of the requested data.
system.membus.snoop_filter.tot_requests        229868                       # Total number of requests made to the snoop filter.
system.membus.snoop_filter.tot_snoops               0                       # Total number of snoops made to the snoop filter.
system.tol2bus.snoop_filter.hit_multi_requests          172                       # Number of requests hitting in the snoop filter with multiple (>1) holders of the requested data.
system.tol2bus.snoop_filter.hit_multi_snoops            0                       # Number of snoops hitting in the snoop filter with multiple (>1) holders of the requested data.
system.tol2bus.snoop_filter.hit_single_requests       708691                       # Number of requests hitting in the snoop filter with a single holder of the requested data.
system.tol2bus.snoop_filter.hit_single_snoops          287                       # Number of snoops hitting in the snoop filter with a single holder of the requested data.
system.tol2bus.snoop_filter.tot_requests      1418105                       # Total number of requests made to the snoop filter.
system.tol2bus.snoop_filter.tot_snoops            287                       # Total number of snoops made to the snoop filter.
system.membus.pwrStateResidencyTicks::UNDEFINED  83313333500                       # Cumulative time (in ticks) in various power states
system.membus.trans_dist::ReadResp              38027                       # Transaction distribution
system.membus.trans_dist::WritebackDirty        72926                       # Transaction distribution
system.membus.trans_dist::CleanEvict            33728                       # Transaction distribution
system.membus.trans_dist::ReadExReq             85187                       # Transaction distribution
system.membus.trans_dist::ReadExResp            85186                       # Transaction distribution
system.membus.trans_dist::ReadSharedReq         38027                       # Transaction distribution
system.membus.pkt_count_system.l2.mem_side::system.mem_ctrls.port       353081                       # Packet count per connected master and slave (bytes)
system.membus.pkt_count::total                 353081                       # Packet count per connected master and slave (bytes)
system.membus.pkt_size_system.l2.mem_side::system.mem_ctrls.port     25105792                       # Cumulative packet size per connected master and slave (bytes)
system.membus.pkt_size::total                25105792                       # Cumulative packet size per connected master and slave (bytes)
system.membus.snoops                                0                       # Total snoops (count)
system.membus.snoopTraffic                          0                       # Total snoop traffic (bytes)
system.membus.snoop_fanout::samples            123214                       # Request fanout histogram
system.membus.snoop_fanout::mean                    0                       # Request fanout histogram
system.membus.snoop_fanout::stdev                   0                       # Request fanout histogram
system.membus.snoop_fanout::underflows              0      0.00%      0.00% # Request fanout histogram
system.membus.snoop_fanout::0                  123214    100.00%    100.00% # Request fanout histogram
system.membus.snoop_fanout::1                       0      0.00%    100.00% # Request fanout histogram
system.membus.snoop_fanout::overflows               0      0.00%    100.00% # Request fanout histogram
system.membus.snoop_fanout::min_value               0                       # Request fanout histogram
system.membus.snoop_fanout::max_value               0                       # Request fanout histogram
system.membus.snoop_fanout::total              123214                       # Request fanout histogram
system.membus.respLayer1.occupancy         1152098500                       # Layer occupancy (ticks)
system.membus.respLayer1.utilization              1.4                       # Layer utilization (%)
system.membus.reqLayer0.occupancy           842100500                       # Layer occupancy (ticks)
system.membus.reqLayer0.utilization               1.0                       # Layer utilization (%)
system.tol2bus.pwrStateResidencyTicks::UNDEFINED  83313333500                       # Cumulative time (in ticks) in various power states
system.tol2bus.trans_dist::ReadResp            420162                       # Transaction distribution
system.tol2bus.trans_dist::WritebackDirty       731023                       # Transaction distribution
system.tol2bus.trans_dist::WritebackClean          444                       # Transaction distribution
system.tol2bus.trans_dist::CleanEvict           84164                       # Transaction distribution
system.tol2bus.trans_dist::ReadExReq           289252                       # Transaction distribution
system.tol2bus.trans_dist::ReadExResp          289251                       # Transaction distribution
system.tol2bus.trans_dist::ReadCleanReq           654                       # Transaction distribution
system.tol2bus.trans_dist::ReadSharedReq       419508                       # Transaction distribution
system.tol2bus.pkt_count_system.cpu.icache.mem_side::system.l2.cpu_side         1752                       # Packet count per connected master and slave (bytes)
system.tol2bus.pkt_count_system.cpu.dcache.mem_side::system.l2.cpu_side      2125766                       # Packet count per connected master and slave (bytes)
system.tol2bus.pkt_count::total               2127518                       # Packet count per connected master and slave (bytes)
system.tol2bus.pkt_size_system.cpu.icache.mem_side::system.l2.cpu_side       140544                       # Cumulative packet size per connected master and slave (bytes)
system.tol2bus.pkt_size_system.cpu.dcache.mem_side::system.l2.cpu_side    174957568                       # Cumulative packet size per connected master and slave (bytes)
system.tol2bus.pkt_size::total              175098112                       # Cumulative packet size per connected master and slave (bytes)
system.tol2bus.snoops                          106940                       # Total snoops (count)
system.tol2bus.snoopTraffic                   9334528                       # Total snoop traffic (bytes)
system.tol2bus.snoop_fanout::samples           816354                       # Request fanout histogram
system.tol2bus.snoop_fanout::mean            0.000562                       # Request fanout histogram
system.tol2bus.snoop_fanout::stdev           0.023705                       # Request fanout histogram
system.tol2bus.snoop_fanout::underflows             0      0.00%      0.00% # Request fanout histogram
system.tol2bus.snoop_fanout::0                 815895     99.94%     99.94% # Request fanout histogram
system.tol2bus.snoop_fanout::1                    459      0.06%    100.00% # Request fanout histogram
system.tol2bus.snoop_fanout::2                      0      0.00%    100.00% # Request fanout histogram
system.tol2bus.snoop_fanout::overflows              0      0.00%    100.00% # Request fanout histogram
system.tol2bus.snoop_fanout::min_value              0                       # Request fanout histogram
system.tol2bus.snoop_fanout::max_value              1                       # Request fanout histogram
system.tol2bus.snoop_fanout::total             816354                       # Request fanout histogram
system.tol2bus.reqLayer0.occupancy         2026134500                       # Layer occupancy (ticks)
system.tol2bus.reqLayer0.utilization              2.4                       # Layer utilization (%)
system.tol2bus.respLayer1.occupancy        1771899995                       # Layer occupancy (ticks)
system.tol2bus.respLayer1.utilization             2.1                       # Layer utilization (%)
system.tol2bus.respLayer0.occupancy           1635000                       # Layer occupancy (ticks)
system.tol2bus.respLayer0.utilization             0.0                       # Layer utilization (%)
system.voltage_domain.voltage                       1                       # Voltage in Volts
system.clk_domain.clock                          1000                       # Clock period in ticks
system.l2.pwrStateResidencyTicks::UNDEFINED  83313333500                       # Cumulative time (in ticks) in various power states
system.l2.demand_hits::.cpu.inst                  220                       # number of demand (read+write) hits
system.l2.demand_hits::.cpu.data               585975                       # number of demand (read+write) hits
system.l2.demand_hits::total                   586195                       # number of demand (read+write) hits
system.l2.overall_hits::.cpu.inst                 220                       # number of overall hits
system.l2.overall_hits::.cpu.data              585975                       # number of overall hits
system.l2.overall_hits::total                  586195                       # number of overall hits
system.l2.demand_misses::.cpu.inst                434                       # number of demand (read+write) misses
system.l2.demand_misses::.cpu.data             122785                       # number of demand (read+write) misses
system.l2.demand_misses::total                 123219                       # number of demand (read+write) misses
system.l2.overall_misses::.cpu.inst               434                       # number of overall misses
system.l2.overall_misses::.cpu.data            122785                       # number of overall misses
system.l2.overall_misses::total                123219                       # number of overall misses
system.l2.demand_miss_latency::.cpu.inst     37300000                       # number of demand (read+write) miss cycles
system.l2.demand_miss_latency::.cpu.data  11159571500                       # number of demand (read+write) miss cycles
system.l2.demand_miss_latency::total      11196871500                       # number of demand (read+write) miss cycles
system.l2.overall_miss_latency::.cpu.inst     37300000                       # number of overall miss cycles
system.l2.overall_miss_latency::.cpu.data  11159571500                       # number of overall miss cycles
system.l2.overall_miss_latency::total     11196871500                       # number of overall miss cycles
system.l2.demand_accesses::.cpu.inst              654                       # number of demand (read+write) accesses
system.l2.demand_accesses::.cpu.data           708760                       # number of demand (read+write) accesses
system.l2.demand_accesses::total               709414                       # number of demand (read+write) accesses
system.l2.overall_accesses::.cpu.inst             654                       # number of overall (read+write) accesses
system.l2.overall_accesses::.cpu.data          708760                       # number of overall (read+write) accesses
system.l2.overall_accesses::total              709414                       # number of overall (read+write) accesses
system.l2.demand_miss_rate::.cpu.inst        0.663609                       # miss rate for demand accesses
system.l2.demand_miss_rate::.cpu.data        0.173239                       # miss rate for demand accesses
system.l2.demand_miss_rate::total            0.173691                       # miss rate for demand accesses
system.l2.overall_miss_rate::.cpu.inst       0.663609                       # miss rate for overall accesses
system.l2.overall_miss_rate::.cpu.data       0.173239                       # miss rate for overall accesses
system.l2.overall_miss_rate::total           0.173691                       # miss rate for overall accesses
system.l2.demand_avg_miss_latency::.cpu.inst 85944.700461                       # average overall miss latency
system.l2.demand_avg_miss_latency::.cpu.data 90887.091257                       # average overall miss latency
system.l2.demand_avg_miss_latency::total 90869.683247                       # average overall miss latency
system.l2.overall_avg_miss_latency::.cpu.inst 85944.700461                       # average overall miss latency
system.l2.overall_avg_miss_latency::.cpu.data 90887.091257                       # average overall miss latency
system.l2.overall_avg_miss_latency::total 90869.683247                       # average overall miss latency
system.l2.blocked_cycles::no_mshrs                  0                       # number of cycles access was blocked
system.l2.blocked_cycles::no_targets                0                       # number of cycles access was blocked
system.l2.blocked::no_mshrs                         0                       # number of cycles access was blocked
system.l2.blocked::no_targets                       0                       # number of cycles access was blocked
system.l2.avg_blocked_cycles::no_mshrs            nan                       # average number of cycles each access was blocked
system.l2.avg_blocked_cycles::no_targets          nan                       # average number of cycles each access was blocked
system.l2.writebacks::.writebacks               72926                       # number of writebacks
system.l2.writebacks::total                     72926                       # number of writebacks
system.l2.demand_mshr_hits::.cpu.data               5                       # number of demand (read+write) MSHR hits
system.l2.demand_mshr_hits::total                   5                       # number of demand (read+write) MSHR hits
system.l2.overall_mshr_hits::.cpu.data              5                       # number of overall MSHR hits
system.l2.overall_mshr_hits::total                  5                       # number of overall MSHR hits
system.l2.demand_mshr_misses::.cpu.inst           434                       # number of demand (read+write) MSHR misses
system.l2.demand_mshr_misses::.cpu.data        122780                       # number of demand (read+write) MSHR misses
system.l2.demand_mshr_misses::total            123214                       # number of demand (read+write) MSHR misses
system.l2.overall_mshr_misses::.cpu.inst          434                       # number of overall MSHR misses
system.l2.overall_mshr_misses::.cpu.data       122780                       # number of overall MSHR misses
system.l2.overall_mshr_misses::total           123214                       # number of overall MSHR misses
system.l2.demand_mshr_miss_latency::.cpu.inst     32960000                       # number of demand (read+write) MSHR miss cycles
system.l2.demand_mshr_miss_latency::.cpu.data   9931432000                       # number of demand (read+write) MSHR miss cycles
system.l2.demand_mshr_miss_latency::total   9964392000                       # number of demand (read+write) MSHR miss cycles
system.l2.overall_mshr_miss_latency::.cpu.inst     32960000                       # number of overall MSHR miss cycles
system.l2.overall_mshr_miss_latency::.cpu.data   9931432000                       # number of overall MSHR miss cycles
system.l2.overall_mshr_miss_latency::total   9964392000                       # number of overall MSHR miss cycles
system.l2.demand_mshr_miss_rate::.cpu.inst     0.663609                       # mshr miss rate for demand accesses
system.l2.demand_mshr_miss_rate::.cpu.data     0.173232                       # mshr miss rate for demand accesses
system.l2.demand_mshr_miss_rate::total       0.173684                       # mshr miss rate for demand accesses
system.l2.overall_mshr_miss_rate::.cpu.inst     0.663609                       # mshr miss rate for overall accesses
system.l2.overall_mshr_miss_rate::.cpu.data     0.173232                       # mshr miss rate for overall accesses
system.l2.overall_mshr_miss_rate::total      0.173684                       # mshr miss rate for overall accesses
system.l2.demand_avg_mshr_miss_latency::.cpu.inst 75944.700461                       # average overall mshr miss latency
system.l2.demand_avg_mshr_miss_latency::.cpu.data 80888.027366                       # average overall mshr miss latency
system.l2.demand_avg_mshr_miss_latency::total 80870.615352                       # average overall mshr miss latency
system.l2.overall_avg_mshr_miss_latency::.cpu.inst 75944.700461                       # average overall mshr miss latency
system.l2.overall_avg_mshr_miss_latency::.cpu.data 80888.027366                       # average overall mshr miss latency
system.l2.overall_avg_mshr_miss_latency::total 80870.615352                       # average overall mshr miss latency
system.l2.replacements                         106940                       # number of replacements
system.l2.WritebackDirty_hits::.writebacks       658097                       # number of WritebackDirty hits
system.l2.WritebackDirty_hits::total           658097                       # number of WritebackDirty hits
system.l2.WritebackDirty_accesses::.writebacks       658097                       # number of WritebackDirty accesses(hits+misses)
system.l2.WritebackDirty_accesses::total       658097                       # number of WritebackDirty accesses(hits+misses)
system.l2.WritebackClean_hits::.writebacks          421                       # number of WritebackClean hits
system.l2.WritebackClean_hits::total              421                       # number of WritebackClean hits
system.l2.WritebackClean_accesses::.writebacks          421                       # number of WritebackClean accesses(hits+misses)
system.l2.WritebackClean_accesses::total          421                       # number of WritebackClean accesses(hits+misses)
system.l2.CleanEvict_mshr_misses::.writebacks            1                       # number of CleanEvict MSHR misses
system.l2.CleanEvict_mshr_misses::total             1                       # number of CleanEvict MSHR misses
system.l2.CleanEvict_mshr_miss_rate::.writebacks          inf                       # mshr miss rate for CleanEvict accesses
system.l2.CleanEvict_mshr_miss_rate::total          inf                       # mshr miss rate for CleanEvict accesses
system.l2.ReadExReq_hits::.cpu.data            204065                       # number of ReadExReq hits
system.l2.ReadExReq_hits::total                204065                       # number of ReadExReq hits
system.l2.ReadExReq_misses::.cpu.data           85187                       # number of ReadExReq misses
system.l2.ReadExReq_misses::total               85187                       # number of ReadExReq misses
system.l2.ReadExReq_miss_latency::.cpu.data   7884093000                       # number of ReadExReq miss cycles
system.l2.ReadExReq_miss_latency::total    7884093000                       # number of ReadExReq miss cycles
system.l2.ReadExReq_accesses::.cpu.data        289252                       # number of ReadExReq accesses(hits+misses)
system.l2.ReadExReq_accesses::total            289252                       # number of ReadExReq accesses(hits+misses)
system.l2.ReadExReq_miss_rate::.cpu.data     0.294508                       # miss rate for ReadExReq accesses
system.l2.ReadExReq_miss_rate::total         0.294508                       # miss rate for ReadExReq accesses
system.l2.ReadExReq_avg_miss_latency::.cpu.data 92550.424361                       # average ReadExReq miss latency
system.l2.ReadExReq_avg_miss_latency::total 92550.424361                       # average ReadExReq miss latency
system.l2.ReadExReq_mshr_misses::.cpu.data        85187                       # number of ReadExReq MSHR misses
system.l2.ReadExReq_mshr_misses::total          85187                       # number of ReadExReq MSHR misses
system.l2.ReadExReq_mshr_miss_latency::.cpu.data   7032233000                       # number of ReadExReq MSHR miss cycles
system.l2.ReadExReq_mshr_miss_latency::total   7032233000                       # number of ReadExReq MSHR miss cycles
system.l2.ReadExReq_mshr_miss_rate::.cpu.data     0.294508                       # mshr miss rate for ReadExReq accesses
system.l2.ReadExReq_mshr_miss_rate::total     0.294508                       # mshr miss rate for ReadExReq accesses
system.l2.ReadExReq_avg_mshr_miss_latency::.cpu.data 82550.541749                       # average ReadExReq mshr miss latency
system.l2.ReadExReq_avg_mshr_miss_latency::total 82550.541749                       # average ReadExReq mshr miss latency
system.l2.ReadCleanReq_hits::.cpu.inst            220                       # number of ReadCleanReq hits
system.l2.ReadCleanReq_hits::total                220                       # number of ReadCleanReq hits
system.l2.ReadCleanReq_misses::.cpu.inst          434                       # number of ReadCleanReq misses
system.l2.ReadCleanReq_misses::total              434                       # number of ReadCleanReq misses
system.l2.ReadCleanReq_miss_latency::.cpu.inst     37300000                       # number of ReadCleanReq miss cycles
system.l2.ReadCleanReq_miss_latency::total     37300000                       # number of ReadCleanReq miss cycles
system.l2.ReadCleanReq_accesses::.cpu.inst          654                       # number of ReadCleanReq accesses(hits+misses)
system.l2.ReadCleanReq_accesses::total            654                       # number of ReadCleanReq accesses(hits+misses)
system.l2.ReadCleanReq_miss_rate::.cpu.inst     0.663609                       # miss rate for ReadCleanReq accesses
system.l2.ReadCleanReq_miss_rate::total      0.663609                       # miss rate for ReadCleanReq accesses
system.l2.ReadCleanReq_avg_miss_latency::.cpu.inst 85944.700461                       # average ReadCleanReq miss latency
system.l2.ReadCleanReq_avg_miss_latency::total 85944.700461                       # average ReadCleanReq miss latency
system.l2.ReadCleanReq_mshr_misses::.cpu.inst          434                       # number of ReadCleanReq MSHR misses
system.l2.ReadCleanReq_mshr_misses::total          434                       # number of ReadCleanReq MSHR misses
system.l2.ReadCleanReq_mshr_miss_latency::.cpu.inst     32960000                       # number of ReadCleanReq MSHR miss cycles
system.l2.ReadCleanReq_mshr_miss_latency::total     32960000                       # number of ReadCleanReq MSHR miss cycles
system.l2.ReadCleanReq_mshr_miss_rate::.cpu.inst     0.663609                       # mshr miss rate for ReadCleanReq accesses
system.l2.ReadCleanReq_mshr_miss_rate::total     0.663609                       # mshr miss rate for ReadCleanReq accesses
system.l2.ReadCleanReq_avg_mshr_miss_latency::.cpu.inst 75944.700461                       # average ReadCleanReq mshr miss latency
system.l2.ReadCleanReq_avg_mshr_miss_latency::total 75944.700461                       # average ReadCleanReq mshr miss latency
system.l2.ReadSharedReq_hits::.cpu.data        381910                       # number of ReadSharedReq hits
system.l2.ReadSharedReq_hits::total            381910                       # number of ReadSharedReq hits
system.l2.ReadSharedReq_misses::.cpu.data        37598                       # number of ReadSharedReq misses
system.l2.ReadSharedReq_misses::total           37598                       # number of ReadSharedReq misses
system.l2.ReadSharedReq_miss_latency::.cpu.data   3275478500                       # number of ReadSharedReq miss cycles
system.l2.ReadSharedReq_miss_latency::total   3275478500                       # number of ReadSharedReq miss cycles
system.l2.ReadSharedReq_accesses::.cpu.data       419508                       # number of ReadSharedReq accesses(hits+misses)
system.l2.ReadSharedReq_accesses::total        419508                       # number of ReadSharedReq accesses(hits+misses)
system.l2.ReadSharedReq_miss_rate::.cpu.data     0.089624                       # miss rate for ReadSharedReq accesses
system.l2.ReadSharedReq_miss_rate::total     0.089624                       # miss rate for ReadSharedReq accesses
system.l2.ReadSharedReq_avg_miss_latency::.cpu.data 87118.423852                       # average ReadSharedReq miss latency
system.l2.ReadSharedReq_avg_miss_latency::total 87118.423852                       # average ReadSharedReq miss latency
system.l2.ReadSharedReq_mshr_hits::.cpu.data            5                       # number of ReadSharedReq MSHR hits
system.l2.ReadSharedReq_mshr_hits::total            5                       # number of ReadSharedReq MSHR hits
system.l2.ReadSharedReq_mshr_misses::.cpu.data        37593                       # number of ReadSharedReq MSHR misses
system.l2.ReadSharedReq_mshr_misses::total        37593                       # number of ReadSharedReq MSHR misses
system.l2.ReadSharedReq_mshr_miss_latency::.cpu.data   2899199000                       # number of ReadSharedReq MSHR miss cycles
system.l2.ReadSharedReq_mshr_miss_latency::total   2899199000                       # number of ReadSharedReq MSHR miss cycles
system.l2.ReadSharedReq_mshr_miss_rate::.cpu.data     0.089612                       # mshr miss rate for ReadSharedReq accesses
system.l2.ReadSharedReq_mshr_miss_rate::total     0.089612                       # mshr miss rate for ReadSharedReq accesses
system.l2.ReadSharedReq_avg_mshr_miss_latency::.cpu.data 77120.713963                       # average ReadSharedReq mshr miss latency
system.l2.ReadSharedReq_avg_mshr_miss_latency::total 77120.713963                       # average ReadSharedReq mshr miss latency
system.l2.tags.pwrStateResidencyTicks::UNDEFINED  83313333500                       # Cumulative time (in ticks) in various power states
system.l2.tags.tagsinuse                 15949.399808                       # Cycle average of tags in use
system.l2.tags.total_refs                     1417926                       # Total number of references to valid blocks.
system.l2.tags.sampled_refs                    123324                       # Sample count of references to valid blocks.
system.l2.tags.avg_refs                     11.497567                       # Average number of references to valid blocks.
system.l2.tags.warmup_cycle                     82000                       # Cycle when the warmup percentage was hit.
system.l2.tags.occ_blocks::.writebacks      35.100262                       # Average occupied blocks per requestor
system.l2.tags.occ_blocks::.cpu.inst        56.930371                       # Average occupied blocks per requestor
system.l2.tags.occ_blocks::.cpu.data     15857.369175                       # Average occupied blocks per requestor
system.l2.tags.occ_percent::.writebacks      0.002142                       # Average percentage of cache occupancy
system.l2.tags.occ_percent::.cpu.inst        0.003475                       # Average percentage of cache occupancy
system.l2.tags.occ_percent::.cpu.data        0.967857                       # Average percentage of cache occupancy
system.l2.tags.occ_percent::total            0.973474                       # Average percentage of cache occupancy
system.l2.tags.occ_task_id_blocks::1024         16384                       # Occupied blocks per task id
system.l2.tags.age_task_id_blocks_1024::0           46                       # Occupied blocks per task id
system.l2.tags.age_task_id_blocks_1024::1           67                       # Occupied blocks per task id
system.l2.tags.age_task_id_blocks_1024::2          684                       # Occupied blocks per task id
system.l2.tags.age_task_id_blocks_1024::3         9071                       # Occupied blocks per task id
system.l2.tags.age_task_id_blocks_1024::4         6516                       # Occupied blocks per task id
system.l2.tags.occ_task_id_percent::1024            1                       # Percentage of cache occupancy per task id
system.l2.tags.tag_accesses                  11466788                       # Number of tag accesses
system.l2.tags.data_accesses                 11466788                       # Number of data accesses
system.cpu_voltage_domain.voltage                   1                       # Voltage in Volts
system.mem_ctrls.pwrStateResidencyTicks::UNDEFINED  83313333500                       # Cumulative time (in ticks) in various power states
system.mem_ctrls.bytes_read::.cpu.inst          55552                       # Number of bytes read from this memory
system.mem_ctrls.bytes_read::.cpu.data       15715840                       # Number of bytes read from this memory
system.mem_ctrls.bytes_read::total           15771392                       # Number of bytes read from this memory
system.mem_ctrls.bytes_inst_read::.cpu.inst        55552                       # Number of instructions bytes read from this memory
system.mem_ctrls.bytes_inst_read::total         55552                       # Number of instructions bytes read from this memory
system.mem_ctrls.bytes_written::.writebacks      9334528                       # Number of bytes written to this memory
system.mem_ctrls.bytes_written::total         9334528                       # Number of bytes written to this memory
system.mem_ctrls.num_reads::.cpu.inst             434                       # Number of read requests responded to by this memory
system.mem_ctrls.num_reads::.cpu.data          122780                       # Number of read requests responded to by this memory
system.mem_ctrls.num_reads::total              123214                       # Number of read requests responded to by this memory
system.mem_ctrls.num_writes::.writebacks        72926                       # Number of write requests responded to by this memory
system.mem_ctrls.num_writes::total              72926                       # Number of write requests responded to by this memory
system.mem_ctrls.bw_read::.cpu.inst            666784                       # Total read bandwidth from this memory (bytes/s)
system.mem_ctrls.bw_read::.cpu.data         188635352                       # Total read bandwidth from this memory (bytes/s)
system.mem_ctrls.bw_read::total             189302136                       # Total read bandwidth from this memory (bytes/s)
system.mem_ctrls.bw_inst_read::.cpu.inst       666784                       # Instruction read bandwidth from this memory (bytes/s)
system.mem_ctrls.bw_inst_read::total           666784                       # Instruction read bandwidth from this memory (bytes/s)
system.mem_ctrls.bw_write::.writebacks      112041226                       # Write bandwidth from this memory (bytes/s)
system.mem_ctrls.bw_write::total            112041226                       # Write bandwidth from this memory (bytes/s)
system.mem_ctrls.bw_total::.writebacks      112041226                       # Total bandwidth to/from this memory (bytes/s)
system.mem_ctrls.bw_total::.cpu.inst           666784                       # Total bandwidth to/from this memory (bytes/s)
system.mem_ctrls.bw_total::.cpu.data        188635352                       # Total bandwidth to/from this memory (bytes/s)
system.mem_ctrls.bw_total::total            301343362                       # Total bandwidth to/from this memory (bytes/s)
system.mem_ctrls.avgPriority_.writebacks::samples    145852.00                       # Average QoS priority value for accepted requests
system.mem_ctrls.avgPriority_.cpu.inst::samples       868.00                       # Average QoS priority value for accepted requests
system.mem_ctrls.avgPriority_.cpu.data::samples    245523.00                       # Average QoS priority value for accepted requests
system.mem_ctrls.priorityMinLatency      0.000000018750                       # per QoS priority minimum request to response latency (s)
system.mem_ctrls.priorityMaxLatency      0.003408331500                       # per QoS priority maximum request to response latency (s)
system.mem_ctrls.numReadWriteTurnArounds         8788                       # Number of turnarounds from READ to WRITE
system.mem_ctrls.numWriteReadTurnArounds         8788                       # Number of turnarounds from WRITE to READ
system.mem_ctrls.numStayReadState              449431                       # Number of times bus staying in READ state
system.mem_ctrls.numStayWriteState             137190                       # Number of times bus staying in WRITE state
system.mem_ctrls.readReqs                      123214                       # Number of read requests accepted
system.mem_ctrls.writeReqs                      72926                       # Number of write requests accepted
system.mem_ctrls.readBursts                    246428                       # Number of DRAM read bursts, including those serviced by the write queue
system.mem_ctrls.writeBursts                   145852                       # Number of DRAM write bursts, including those merged in the write queue
system.mem_ctrls.servicedByWrQ                     37                       # Number of DRAM read bursts serviced by the write queue
system.mem_ctrls.mergedWrBursts                     0                       # Number of DRAM write bursts merged with an existing one
system.mem_ctrls.neitherReadNorWriteReqs            0                       # Number of requests that are neither read nor write
system.mem_ctrls.perBankRdBursts::0             15854                       # Per bank write bursts
system.mem_ctrls.perBankRdBursts::1             15662                       # Per bank write bursts
system.mem_ctrls.perBankRdBursts::2             15672                       # Per bank write bursts
system.mem_ctrls.perBankRdBursts::3             15334                       # Per bank write bursts
system.mem_ctrls.perBankRdBursts::4             15374                       # Per bank write bursts
system.mem_ctrls.perBankRdBursts::5             15268                       # Per bank write bursts
system.mem_ctrls.perBankRdBursts::6             15136                       # Per bank write bursts
system.mem_ctrls.perBankRdBursts::7             15250                       # Per bank write bursts
system.mem_ctrls.perBankRdBursts::8             15196                       # Per bank write bursts
system.mem_ctrls.perBankRdBursts::9             15170                       # Per bank write bursts
system.mem_ctrls.perBankRdBursts::10            15286                       # Per bank write bursts
system.mem_ctrls.perBankRdBursts::11            15304                       # Per bank write bursts
system.mem_ctrls.perBankRdBursts::12            15450                       # Per bank write bursts
system.mem_ctrls.perBankRdBursts::13            15436                       # Per bank write bursts
system.mem_ctrls.perBankRdBursts::14            15458                       # Per bank write bursts
system.mem_ctrls.perBankRdBursts::15            15541                       # Per bank write bursts
system.mem_ctrls.perBankWrBursts::0              9334                       # Per bank write bursts
system.mem_ctrls.perBankWrBursts::1              9386                       # Per bank write bursts
system.mem_ctrls.perBankWrBursts::2              9386                       # Per bank write bursts
system.mem_ctrls.perBankWrBursts::3              9138                       # Per bank write bursts
system.mem_ctrls.perBankWrBursts::4              9126                       # Per bank write bursts
system.mem_ctrls.perBankWrBursts::5              9085                       # Per bank write bursts
system.mem_ctrls.perBankWrBursts::6              8992                       # Per bank write bursts
system.mem_ctrls.perBankWrBursts::7              8962                       # Per bank write bursts
system.mem_ctrls.perBankWrBursts::8              8966                       # Per bank write bursts
system.mem_ctrls.perBankWrBursts::9              8926                       # Per bank write bursts
system.mem_ctrls.perBankWrBursts::10             9012                       # Per bank write bursts
system.mem_ctrls.perBankWrBursts::11             8960                       # Per bank write bursts
system.mem_ctrls.perBankWrBursts::12             9078                       # Per bank write bursts
system.mem_ctrls.perBankWrBursts::13             9148                       # Per bank write bursts
system.mem_ctrls.perBankWrBursts::14             9174                       # Per bank write bursts
system.mem_ctrls.perBankWrBursts::15             9150                       # Per bank write bursts
system.mem_ctrls.avgRdQLen                       2.06                       # Average read queue length when enqueuing
system.mem_ctrls.avgWrQLen                      25.14                       # Average write queue length when enqueuing
system.mem_ctrls.totQLat                   4535569500                       # Total ticks spent queuing
system.mem_ctrls.totBusLat                 1231955000                       # Total ticks spent in databus transfers
system.mem_ctrls.totMemAccLat              9155400750                       # Total ticks spent from burst creation until serviced by the DRAM
system.mem_ctrls.avgQLat                     18408.02                       # Average queueing delay per DRAM burst
system.mem_ctrls.avgBusLat                    5000.00                       # Average bus latency per DRAM burst
system.mem_ctrls.avgMemAccLat                37158.02                       # Average memory access latency per DRAM burst
system.mem_ctrls.numRdRetry                         0                       # Number of times read queue was full causing retry
system.mem_ctrls.numWrRetry                         0                       # Number of times write queue was full causing retry
system.mem_ctrls.readRowHits                   203284                       # Number of row buffer hits during reads
system.mem_ctrls.writeRowHits                  116218                       # Number of row buffer hits during writes
system.mem_ctrls.readRowHitRate                 82.50                       # Row buffer hit rate for reads
system.mem_ctrls.writeRowHitRate                79.68                       # Row buffer hit rate for writes
system.mem_ctrls.readPktSize::0                     0                       # Read request sizes (log2)
system.mem_ctrls.readPktSize::1                     0                       # Read request sizes (log2)
system.mem_ctrls.readPktSize::2                     0                       # Read request sizes (log2)
system.mem_ctrls.readPktSize::3                     0                       # Read request sizes (log2)
system.mem_ctrls.readPktSize::4                     0                       # Read request sizes (log2)
system.mem_ctrls.readPktSize::5                     0                       # Read request sizes (log2)
system.mem_ctrls.readPktSize::6                246428                       # Read request sizes (log2)
system.mem_ctrls.writePktSize::0                    0                       # Write request sizes (log2)
system.mem_ctrls.writePktSize::1                    0                       # Write request sizes (log2)
system.mem_ctrls.writePktSize::2                    0                       # Write request sizes (log2)
system.mem_ctrls.writePktSize::3                    0                       # Write request sizes (log2)
system.mem_ctrls.writePktSize::4                    0                       # Write request sizes (log2)
system.mem_ctrls.writePktSize::5                    0                       # Write request sizes (log2)
system.mem_ctrls.writePktSize::6               145852                       # Write request sizes (log2)
system.mem_ctrls.rdQLenPdf::0                  103717                       # What read queue length does an incoming req see
system.mem_ctrls.rdQLenPdf::1                  104079                       # What read queue length does an incoming req see
system.mem_ctrls.rdQLenPdf::2                   19471                       # What read queue length does an incoming req see
system.mem_ctrls.rdQLenPdf::3                   19109                       # What read queue length does an incoming req see
system.mem_ctrls.rdQLenPdf::4                       7                       # What read queue length does an incoming req see
system.mem_ctrls.rdQLenPdf::5                       6                       # What read queue length does an incoming req see
system.mem_ctrls.rdQLenPdf::6                       1                       # What read queue length does an incoming req see
system.mem_ctrls.rdQLenPdf::7                       1                       # What read queue length does an incoming req see
system.mem_ctrls.rdQLenPdf::8                       0                       # What read queue length does an incoming req see
system.mem_ctrls.rdQLenPdf::9                       0                       # What read queue length does an incoming req see
system.mem_ctrls.rdQLenPdf::10                      0                       # What read queue length does an incoming req see
system.mem_ctrls.rdQLenPdf::11                      0                       # What read queue length does an incoming req see
system.mem_ctrls.rdQLenPdf::12                      0                       # What read queue length does an incoming req see
system.mem_ctrls.rdQLenPdf::13                      0                       # What read queue length does an incoming req see
system.mem_ctrls.rdQLenPdf::14                      0                       # What read queue length does an incoming req see
system.mem_ctrls.rdQLenPdf::15                      0                       # What read queue length does an incoming req see
system.mem_ctrls.rdQLenPdf::16                      0                       # What read queue length does an incoming req see
system.mem_ctrls.rdQLenPdf::17                      0                       # What read queue length does an incoming req see
system.mem_ctrls.rdQLenPdf::18                      0                       # What read queue length does an incoming req see
system.mem_ctrls.rdQLenPdf::19                      0                       # What read queue length does an incoming req see
system.mem_ctrls.rdQLenPdf::20                      0                       # What read queue length does an incoming req see
system.mem_ctrls.rdQLenPdf::21                      0                       # What read queue length does an incoming req see
system.mem_ctrls.rdQLenPdf::22                      0                       # What read queue length does an incoming req see
system.mem_ctrls.rdQLenPdf::23                      0                       # What read queue length does an incoming req see
system.mem_ctrls.rdQLenPdf::24                      0                       # What read queue length does an incoming req see
system.mem_ctrls.rdQLenPdf::25                      0                       # What read queue length does an incoming req see
system.mem_ctrls.rdQLenPdf::26                      0                       # What read queue length does an incoming req see
system.mem_ctrls.rdQLenPdf::27                      0                       # What read queue length does an incoming req see
system.mem_ctrls.rdQLenPdf::28                      0                       # What read queue length does an incoming req see
system.mem_ctrls.rdQLenPdf::29                      0                       # What read queue length does an incoming req see
system.mem_ctrls.rdQLenPdf::30                      0                       # What read queue length does an incoming req see
system.mem_ctrls.rdQLenPdf::31                      0                       # What read queue length does an incoming req see
system.mem_ctrls.wrQLenPdf::0                       1                       # What write queue length does an incoming req see
system.mem_ctrls.wrQLenPdf::1                       1                       # What write queue length does an incoming req see
system.mem_ctrls.wrQLenPdf::2                       1                       # What write queue length does an incoming req see
system.mem_ctrls.wrQLenPdf::3                       1                       # What write queue length does an incoming req see
system.mem_ctrls.wrQLenPdf::4                       1                       # What write queue length does an incoming req see
system.mem_ctrls.wrQLenPdf::5                       1                       # What write queue length does an incoming req see
system.mem_ctrls.wrQLenPdf::6                       1                       # What write queue length does an incoming req see
system.mem_ctrls.wrQLenPdf::7                       1                       # What write queue length does an incoming req see
system.mem_ctrls.wrQLenPdf::8                       1                       # What write queue length does an incoming req see
system.mem_ctrls.wrQLenPdf::9                       1                       # What write queue length does an incoming req see
system.mem_ctrls.wrQLenPdf::10                      1                       # What write queue length does an incoming req see
system.mem_ctrls.wrQLenPdf::11                      1                       # What write queue length does an incoming req see
system.mem_ctrls.wrQLenPdf::12                      1                       # What write queue length does an incoming req see
system.mem_ctrls.wrQLenPdf::13                      1                       # What write queue length does an incoming req see
system.mem_ctrls.wrQLenPdf::14                      1                       # What write queue length does an incoming req see
system.mem_ctrls.wrQLenPdf::15                   2354                       # What write queue length does an incoming req see
system.mem_ctrls.wrQLenPdf::16                   2385                       # What write queue length does an incoming req see
system.mem_ctrls.wrQLenPdf::17                   5279                       # What write queue length does an incoming req see
system.mem_ctrls.wrQLenPdf::18                   5493                       # What write queue length does an incoming req see
system.mem_ctrls.wrQLenPdf::19                   5983                       # What write queue length does an incoming req see
system.mem_ctrls.wrQLenPdf::20                   8865                       # What write queue length does an incoming req see
system.mem_ctrls.wrQLenPdf::21                   8897                       # What write queue length does an incoming req see
system.mem_ctrls.wrQLenPdf::22                   8890                       # What write queue length does an incoming req see
system.mem_ctrls.wrQLenPdf::23                   8883                       # What write queue length does an incoming req see
system.mem_ctrls.wrQLenPdf::24                   9160                       # What write queue length does an incoming req see
system.mem_ctrls.wrQLenPdf::25                   9452                       # What write queue length does an incoming req see
system.mem_ctrls.wrQLenPdf::26                  11447                       # What write queue length does an incoming req see
system.mem_ctrls.wrQLenPdf::27                  11184                       # What write queue length does an incoming req see
system.mem_ctrls.wrQLenPdf::28                   8932                       # What write queue length does an incoming req see
system.mem_ctrls.wrQLenPdf::29                   8998                       # What write queue length does an incoming req see
system.mem_ctrls.wrQLenPdf::30                   8948                       # What write queue length does an incoming req see
system.mem_ctrls.wrQLenPdf::31                   8796                       # What write queue length does an incoming req see
system.mem_ctrls.wrQLenPdf::32                   8792                       # What write queue length does an incoming req see
system.mem_ctrls.wrQLenPdf::33                   3090                       # What write queue length does an incoming req see
system.mem_ctrls.wrQLenPdf::34                      6                       # What write queue length does an incoming req see
system.mem_ctrls.wrQLenPdf::35                      3                       # What write queue length does an incoming req see
system.mem_ctrls.wrQLenPdf::36                      0                       # What write queue length does an incoming req see
system.mem_ctrls.wrQLenPdf::37                      0                       # What write queue length does an incoming req see
system.mem_ctrls.wrQLenPdf::38                      0                       # What write queue length does an incoming req see
system.mem_ctrls.wrQLenPdf::39                      0                       # What write queue length does an incoming req see
system.mem_ctrls.wrQLenPdf::40                      0                       # What write queue length does an incoming req see
system.mem_ctrls.wrQLenPdf::41                      0                       # What write queue length does an incoming req see
system.mem_ctrls.wrQLenPdf::42                      0                       # What write queue length does an incoming req see
system.mem_ctrls.wrQLenPdf::43                      0                       # What write queue length does an incoming req see
system.mem_ctrls.wrQLenPdf::44                      0                       # What write queue length does an incoming req see
system.mem_ctrls.wrQLenPdf::45                      0                       # What write queue length does an incoming req see
system.mem_ctrls.wrQLenPdf::46                      0                       # What write queue length does an incoming req see
system.mem_ctrls.wrQLenPdf::47                      0                       # What write queue length does an incoming req see
system.mem_ctrls.wrQLenPdf::48                      0                       # What write queue length does an incoming req see
system.mem_ctrls.wrQLenPdf::49                      0                       # What write queue length does an incoming req see
system.mem_ctrls.wrQLenPdf::50                      0                       # What write queue length does an incoming req see
system.mem_ctrls.wrQLenPdf::51                      0                       # What write queue length does an incoming req see
system.mem_ctrls.wrQLenPdf::52                      0                       # What write queue length does an incoming req see
system.mem_ctrls.wrQLenPdf::53                      0                       # What write queue length does an incoming req see
system.mem_ctrls.wrQLenPdf::54                      0                       # What write queue length does an incoming req see
system.mem_ctrls.wrQLenPdf::55                      0                       # What write queue length does an incoming req see
system.mem_ctrls.wrQLenPdf::56                      0                       # What write queue length does an incoming req see
system.mem_ctrls.wrQLenPdf::57                      0                       # What write queue length does an incoming req see
system.mem_ctrls.wrQLenPdf::58                      0                       # What write queue length does an incoming req see
system.mem_ctrls.wrQLenPdf::59                      0                       # What write queue length does an incoming req see
system.mem_ctrls.wrQLenPdf::60                      0                       # What write queue length does an incoming req see
system.mem_ctrls.wrQLenPdf::61                      0                       # What write queue length does an incoming req see
system.mem_ctrls.wrQLenPdf::62                      0                       # What write queue length does an incoming req see
system.mem_ctrls.wrQLenPdf::63                      0                       # What write queue length does an incoming req see
system.mem_ctrls.bytesPerActivate::samples        72709                       # Bytes accessed per row activation
system.mem_ctrls.bytesPerActivate::mean    345.229779                       # Bytes accessed per row activation
system.mem_ctrls.bytesPerActivate::gmean   220.476279                       # Bytes accessed per row activation
system.mem_ctrls.bytesPerActivate::stdev   357.268271                       # Bytes accessed per row activation
system.mem_ctrls.bytesPerActivate::0-127         3472      4.78%      4.78% # Bytes accessed per row activation
system.mem_ctrls.bytesPerActivate::128-255        44361     61.01%     65.79% # Bytes accessed per row activation
system.mem_ctrls.bytesPerActivate::256-383         4642      6.38%     72.17% # Bytes accessed per row activation
system.mem_ctrls.bytesPerActivate::384-511         1610      2.21%     74.39% # Bytes accessed per row activation
system.mem_ctrls.bytesPerActivate::512-639         1505      2.07%     76.46% # Bytes accessed per row activation
system.mem_ctrls.bytesPerActivate::640-767         1843      2.53%     78.99% # Bytes accessed per row activation
system.mem_ctrls.bytesPerActivate::768-895          891      1.23%     80.22% # Bytes accessed per row activation
system.mem_ctrls.bytesPerActivate::896-1023          820      1.13%     81.34% # Bytes accessed per row activation
system.mem_ctrls.bytesPerActivate::1024-1151        13565     18.66%    100.00% # Bytes accessed per row activation
system.mem_ctrls.bytesPerActivate::total        72709                       # Bytes accessed per row activation
system.mem_ctrls.rdPerTurnAround::samples         8788                       # Reads before turning the bus around for writes
system.mem_ctrls.rdPerTurnAround::mean      28.035162                       # Reads before turning the bus around for writes
system.mem_ctrls.rdPerTurnAround::gmean     22.321687                       # Reads before turning the bus around for writes
system.mem_ctrls.rdPerTurnAround::stdev     61.229787                       # Reads before turning the bus around for writes
system.mem_ctrls.rdPerTurnAround::0-255          8763     99.72%     99.72% # Reads before turning the bus around for writes
system.mem_ctrls.rdPerTurnAround::256-511           22      0.25%     99.97% # Reads before turning the bus around for writes
system.mem_ctrls.rdPerTurnAround::512-767            1      0.01%     99.98% # Reads before turning the bus around for writes
system.mem_ctrls.rdPerTurnAround::1536-1791            1      0.01%     99.99% # Reads before turning the bus around for writes
system.mem_ctrls.rdPerTurnAround::4608-4863            1      0.01%    100.00% # Reads before turning the bus around for writes
[...]
system.cpu.icache.ReadReq_avg_miss_latency::total 63260.703364                       # average ReadReq miss latency
system.cpu.icache.ReadReq_mshr_misses::.cpu.inst          654                       # number of ReadReq MSHR misses
system.cpu.icache.ReadReq_mshr_misses::total          654                       # number of ReadReq MSHR misses
system.cpu.icache.ReadReq_mshr_miss_latency::.cpu.inst     40718500                       # number of ReadReq MSHR miss cycles
system.cpu.icache.ReadReq_mshr_miss_latency::total     40718500                       # number of ReadReq MSHR miss cycles
system.cpu.icache.ReadReq_mshr_miss_rate::.cpu.inst     0.000081                       # mshr miss rate for ReadReq accesses
system.cpu.icache.ReadReq_mshr_miss_rate::total     0.000081                       # mshr miss rate for ReadReq accesses
system.cpu.icache.ReadReq_avg_mshr_miss_latency::.cpu.inst 62260.703364                       # average ReadReq mshr miss latency
system.cpu.icache.ReadReq_avg_mshr_miss_latency::total 62260.703364                       # average ReadReq mshr miss latency
system.cpu.icache.tags.pwrStateResidencyTicks::UNDEFINED  83313333500                       # Cumulative time (in ticks) in various power states
system.cpu.icache.tags.tagsinuse           179.832525                       # Cycle average of tags in use
system.cpu.icache.tags.total_refs             8051155                       # Total number of references to valid blocks.
system.cpu.icache.tags.sampled_refs               654                       # Sample count of references to valid blocks.
system.cpu.icache.tags.avg_refs          12310.634557                       # Average number of references to valid blocks.
system.cpu.icache.tags.warmup_cycle             92500                       # Cycle when the warmup percentage was hit.
system.cpu.icache.tags.occ_blocks::.cpu.inst   179.832525                       # Average occupied blocks per requestor
system.cpu.icache.tags.occ_percent::.cpu.inst     0.702471                       # Average percentage of cache occupancy
system.cpu.icache.tags.occ_percent::total     0.702471                       # Average percentage of cache occupancy
system.cpu.icache.tags.occ_task_id_blocks::1024          210                       # Occupied blocks per task id
system.cpu.icache.tags.age_task_id_blocks_1024::3           52                       # Occupied blocks per task id
system.cpu.icache.tags.age_task_id_blocks_1024::4          158                       # Occupied blocks per task id
system.cpu.icache.tags.occ_task_id_percent::1024     0.820312                       # Percentage of cache occupancy per task id
system.cpu.icache.tags.tag_accesses           8051809                       # Number of tag accesses
system.cpu.icache.tags.data_accesses          8051809                       # Number of data accesses
system.cpu.dtb.walker.pwrStateResidencyTicks::UNDEFINED  83313333500                       # Cumulative time (in ticks) in various power states
system.cpu.dtb.stage2_mmu.stage2_tlb.walker.pwrStateResidencyTicks::UNDEFINED  83313333500                       # Cumulative time (in ticks) in various power states
system.cpu.dcache.pwrStateResidencyTicks::UNDEFINED  83313333500                       # Cumulative time (in ticks) in various power states
system.cpu.dcache.demand_hits::.cpu.data     51311924                       # number of demand (read+write) hits
system.cpu.dcache.demand_hits::total         51311924                       # number of demand (read+write) hits
system.cpu.dcache.overall_hits::.cpu.data     51312488                       # number of overall hits
system.cpu.dcache.overall_hits::total        51312488                       # number of overall hits
system.cpu.dcache.demand_misses::.cpu.data       740242                       # number of demand (read+write) misses
system.cpu.dcache.demand_misses::total         740242                       # number of demand (read+write) misses
system.cpu.dcache.overall_misses::.cpu.data       748096                       # number of overall misses
system.cpu.dcache.overall_misses::total        748096                       # number of overall misses
system.cpu.dcache.demand_miss_latency::.cpu.data  21205851000                       # number of demand (read+write) miss cycles
system.cpu.dcache.demand_miss_latency::total  21205851000                       # number of demand (read+write) miss cycles
system.cpu.dcache.overall_miss_latency::.cpu.data  21205851000                       # number of overall miss cycles
system.cpu.dcache.overall_miss_latency::total  21205851000                       # number of overall miss cycles
system.cpu.dcache.demand_accesses::.cpu.data     52052166                       # number of demand (read+write) accesses
system.cpu.dcache.demand_accesses::total     52052166                       # number of demand (read+write) accesses
system.cpu.dcache.overall_accesses::.cpu.data     52060584                       # number of overall (read+write) accesses
system.cpu.dcache.overall_accesses::total     52060584                       # number of overall (read+write) accesses
system.cpu.dcache.demand_miss_rate::.cpu.data     0.014221                       # miss rate for demand accesses
system.cpu.dcache.demand_miss_rate::total     0.014221                       # miss rate for demand accesses
system.cpu.dcache.overall_miss_rate::.cpu.data     0.014370                       # miss rate for overall accesses
system.cpu.dcache.overall_miss_rate::total     0.014370                       # miss rate for overall accesses
system.cpu.dcache.demand_avg_miss_latency::.cpu.data 28647.187001                       # average overall miss latency
system.cpu.dcache.demand_avg_miss_latency::total 28647.187001                       # average overall miss latency
system.cpu.dcache.overall_avg_miss_latency::.cpu.data 28346.430137                       # average overall miss latency
system.cpu.dcache.overall_avg_miss_latency::total 28346.430137                       # average overall miss latency
system.cpu.dcache.blocked_cycles::no_mshrs            0                       # number of cycles access was blocked
system.cpu.dcache.blocked_cycles::no_targets            0                       # number of cycles access was blocked
system.cpu.dcache.blocked::no_mshrs                 0                       # number of cycles access was blocked
system.cpu.dcache.blocked::no_targets               0                       # number of cycles access was blocked
system.cpu.dcache.avg_blocked_cycles::no_mshrs          nan                       # average number of cycles each access was blocked
system.cpu.dcache.avg_blocked_cycles::no_targets          nan                       # average number of cycles each access was blocked
system.cpu.dcache.writebacks::.writebacks       658097                       # number of writebacks
system.cpu.dcache.writebacks::total            658097                       # number of writebacks
system.cpu.dcache.demand_mshr_hits::.cpu.data        35437                       # number of demand (read+write) MSHR hits
system.cpu.dcache.demand_mshr_hits::total        35437                       # number of demand (read+write) MSHR hits
system.cpu.dcache.overall_mshr_hits::.cpu.data        35437                       # number of overall MSHR hits
system.cpu.dcache.overall_mshr_hits::total        35437                       # number of overall MSHR hits
system.cpu.dcache.demand_mshr_misses::.cpu.data       704805                       # number of demand (read+write) MSHR misses
system.cpu.dcache.demand_mshr_misses::total       704805                       # number of demand (read+write) MSHR misses
system.cpu.dcache.overall_mshr_misses::.cpu.data       708760                       # number of overall MSHR misses
system.cpu.dcache.overall_mshr_misses::total       708760                       # number of overall MSHR misses
system.cpu.dcache.demand_mshr_miss_latency::.cpu.data  18080651500                       # number of demand (read+write) MSHR miss cycles
system.cpu.dcache.demand_mshr_miss_latency::total  18080651500                       # number of demand (read+write) MSHR miss cycles
system.cpu.dcache.overall_mshr_miss_latency::.cpu.data  18413454500                       # number of overall MSHR miss cycles
system.cpu.dcache.overall_mshr_miss_latency::total  18413454500                       # number of overall MSHR miss cycles
system.cpu.dcache.demand_mshr_miss_rate::.cpu.data     0.013540                       # mshr miss rate for demand accesses
system.cpu.dcache.demand_mshr_miss_rate::total     0.013540                       # mshr miss rate for demand accesses
system.cpu.dcache.overall_mshr_miss_rate::.cpu.data     0.013614                       # mshr miss rate for overall accesses
system.cpu.dcache.overall_mshr_miss_rate::total     0.013614                       # mshr miss rate for overall accesses
system.cpu.dcache.demand_avg_mshr_miss_latency::.cpu.data 25653.409808                       # average overall mshr miss latency
system.cpu.dcache.demand_avg_mshr_miss_latency::total 25653.409808                       # average overall mshr miss latency
system.cpu.dcache.overall_avg_mshr_miss_latency::.cpu.data 25979.816158                       # average overall mshr miss latency
system.cpu.dcache.overall_avg_mshr_miss_latency::total 25979.816158                       # average overall mshr miss latency
system.cpu.dcache.replacements                 708247                       # number of replacements
system.cpu.dcache.ReadReq_hits::.cpu.data     40683905                       # number of ReadReq hits
system.cpu.dcache.ReadReq_hits::total        40683905                       # number of ReadReq hits
system.cpu.dcache.ReadReq_misses::.cpu.data       418182                       # number of ReadReq misses
system.cpu.dcache.ReadReq_misses::total        418182                       # number of ReadReq misses
system.cpu.dcache.ReadReq_miss_latency::.cpu.data   8177491500                       # number of ReadReq miss cycles
system.cpu.dcache.ReadReq_miss_latency::total   8177491500                       # number of ReadReq miss cycles
system.cpu.dcache.ReadReq_accesses::.cpu.data     41102087                       # number of ReadReq accesses(hits+misses)
system.cpu.dcache.ReadReq_accesses::total     41102087                       # number of ReadReq accesses(hits+misses)
system.cpu.dcache.ReadReq_miss_rate::.cpu.data     0.010174                       # miss rate for ReadReq accesses
system.cpu.dcache.ReadReq_miss_rate::total     0.010174                       # miss rate for ReadReq accesses
system.cpu.dcache.ReadReq_avg_miss_latency::.cpu.data 19554.862476                       # average ReadReq miss latency
system.cpu.dcache.ReadReq_avg_miss_latency::total 19554.862476                       # average ReadReq miss latency
system.cpu.dcache.ReadReq_mshr_hits::.cpu.data         2629                       # number of ReadReq MSHR hits
system.cpu.dcache.ReadReq_mshr_hits::total         2629                       # number of ReadReq MSHR hits
system.cpu.dcache.ReadReq_mshr_misses::.cpu.data       415553                       # number of ReadReq MSHR misses
system.cpu.dcache.ReadReq_mshr_misses::total       415553                       # number of ReadReq MSHR misses
system.cpu.dcache.ReadReq_mshr_miss_latency::.cpu.data   7617585500                       # number of ReadReq MSHR miss cycles
system.cpu.dcache.ReadReq_mshr_miss_latency::total   7617585500                       # number of ReadReq MSHR miss cycles
system.cpu.dcache.ReadReq_mshr_miss_rate::.cpu.data     0.010110                       # mshr miss rate for ReadReq accesses
system.cpu.dcache.ReadReq_mshr_miss_rate::total     0.010110                       # mshr miss rate for ReadReq accesses
system.cpu.dcache.ReadReq_avg_mshr_miss_latency::.cpu.data 18331.200834                       # average ReadReq mshr miss latency
system.cpu.dcache.ReadReq_avg_mshr_miss_latency::total 18331.200834                       # average ReadReq mshr miss latency
system.cpu.dcache.WriteReq_hits::.cpu.data     10628019                       # number of WriteReq hits
system.cpu.dcache.WriteReq_hits::total       10628019                       # number of WriteReq hits
system.cpu.dcache.WriteReq_misses::.cpu.data       322060                       # number of WriteReq misses
system.cpu.dcache.WriteReq_misses::total       322060                       # number of WriteReq misses
system.cpu.dcache.WriteReq_miss_latency::.cpu.data  13028359500                       # number of WriteReq miss cycles
system.cpu.dcache.WriteReq_miss_latency::total  13028359500                       # number of WriteReq miss cycles
system.cpu.dcache.WriteReq_accesses::.cpu.data     10950079                       # number of WriteReq accesses(hits+misses)
system.cpu.dcache.WriteReq_accesses::total     10950079                       # number of WriteReq accesses(hits+misses)
system.cpu.dcache.WriteReq_miss_rate::.cpu.data     0.029412                       # miss rate for WriteReq accesses
system.cpu.dcache.WriteReq_miss_rate::total     0.029412                       # miss rate for WriteReq accesses
system.cpu.dcache.WriteReq_avg_miss_latency::.cpu.data 40453.205924                       # average WriteReq miss latency
system.cpu.dcache.WriteReq_avg_miss_latency::total 40453.205924                       # average WriteReq miss latency
system.cpu.dcache.WriteReq_mshr_hits::.cpu.data        32808                       # number of WriteReq MSHR hits
system.cpu.dcache.WriteReq_mshr_hits::total        32808                       # number of WriteReq MSHR hits
system.cpu.dcache.WriteReq_mshr_misses::.cpu.data       289252                       # number of WriteReq MSHR misses
system.cpu.dcache.WriteReq_mshr_misses::total       289252                       # number of WriteReq MSHR misses
system.cpu.dcache.WriteReq_mshr_miss_latency::.cpu.data  10463066000                       # number of WriteReq MSHR miss cycles
system.cpu.dcache.WriteReq_mshr_miss_latency::total  10463066000                       # number of WriteReq MSHR miss cycles
system.cpu.dcache.WriteReq_mshr_miss_rate::.cpu.data     0.026416                       # mshr miss rate for WriteReq accesses
system.cpu.dcache.WriteReq_mshr_miss_rate::total     0.026416                       # mshr miss rate for WriteReq accesses
system.cpu.dcache.WriteReq_avg_mshr_miss_latency::.cpu.data 36172.838909                       # average WriteReq mshr miss latency
system.cpu.dcache.WriteReq_avg_mshr_miss_latency::total 36172.838909                       # average WriteReq mshr miss latency
system.cpu.dcache.SoftPFReq_hits::.cpu.data          564                       # number of SoftPFReq hits
system.cpu.dcache.SoftPFReq_hits::total           564                       # number of SoftPFReq hits
system.cpu.dcache.SoftPFReq_misses::.cpu.data         7854                       # number of SoftPFReq misses
system.cpu.dcache.SoftPFReq_misses::total         7854                       # number of SoftPFReq misses
system.cpu.dcache.SoftPFReq_accesses::.cpu.data         8418                       # number of SoftPFReq accesses(hits+misses)
system.cpu.dcache.SoftPFReq_accesses::total         8418                       # number of SoftPFReq accesses(hits+misses)
system.cpu.dcache.SoftPFReq_miss_rate::.cpu.data     0.933001                       # miss rate for SoftPFReq accesses
system.cpu.dcache.SoftPFReq_miss_rate::total     0.933001                       # miss rate for SoftPFReq accesses
system.cpu.dcache.SoftPFReq_mshr_misses::.cpu.data         3955                       # number of SoftPFReq MSHR misses
system.cpu.dcache.SoftPFReq_mshr_misses::total         3955                       # number of SoftPFReq MSHR misses
system.cpu.dcache.SoftPFReq_mshr_miss_latency::.cpu.data    332803000                       # number of SoftPFReq MSHR miss cycles
system.cpu.dcache.SoftPFReq_mshr_miss_latency::total    332803000                       # number of SoftPFReq MSHR miss cycles
system.cpu.dcache.SoftPFReq_mshr_miss_rate::.cpu.data     0.469827                       # mshr miss rate for SoftPFReq accesses
system.cpu.dcache.SoftPFReq_mshr_miss_rate::total     0.469827                       # mshr miss rate for SoftPFReq accesses
system.cpu.dcache.SoftPFReq_avg_mshr_miss_latency::.cpu.data 84147.408344                       # average SoftPFReq mshr miss latency
system.cpu.dcache.SoftPFReq_avg_mshr_miss_latency::total 84147.408344                       # average SoftPFReq mshr miss latency
system.cpu.dcache.LoadLockedReq_hits::.cpu.data           38                       # number of LoadLockedReq hits
system.cpu.dcache.LoadLockedReq_hits::total           38                       # number of LoadLockedReq hits
system.cpu.dcache.LoadLockedReq_accesses::.cpu.data           38                       # number of LoadLockedReq accesses(hits+misses)
system.cpu.dcache.LoadLockedReq_accesses::total           38                       # number of LoadLockedReq accesses(hits+misses)
system.cpu.dcache.StoreCondReq_hits::.cpu.data           38                       # number of StoreCondReq hits
system.cpu.dcache.StoreCondReq_hits::total           38                       # number of StoreCondReq hits
system.cpu.dcache.StoreCondReq_accesses::.cpu.data           38                       # number of StoreCondReq accesses(hits+misses)
system.cpu.dcache.StoreCondReq_accesses::total           38                       # number of StoreCondReq accesses(hits+misses)
system.cpu.dcache.tags.pwrStateResidencyTicks::UNDEFINED  83313333500                       # Cumulative time (in ticks) in various power states
system.cpu.dcache.tags.tagsinuse           504.423574                       # Cycle average of tags in use
system.cpu.dcache.tags.total_refs            52021323                       # Total number of references to valid blocks.
system.cpu.dcache.tags.sampled_refs            708759                       # Sample count of references to valid blocks.
system.cpu.dcache.tags.avg_refs             73.397760                       # Average number of references to valid blocks.
system.cpu.dcache.tags.warmup_cycle            186500                       # Cycle when the warmup percentage was hit.
system.cpu.dcache.tags.occ_blocks::.cpu.data   504.423574                       # Average occupied blocks per requestor
system.cpu.dcache.tags.occ_percent::.cpu.data     0.985202                       # Average percentage of cache occupancy
system.cpu.dcache.tags.occ_percent::total     0.985202                       # Average percentage of cache occupancy
system.cpu.dcache.tags.occ_task_id_blocks::1024          512                       # Occupied blocks per task id
system.cpu.dcache.tags.age_task_id_blocks_1024::0          237                       # Occupied blocks per task id
system.cpu.dcache.tags.age_task_id_blocks_1024::1          233                       # Occupied blocks per task id
system.cpu.dcache.tags.age_task_id_blocks_1024::2           40                       # Occupied blocks per task id
system.cpu.dcache.tags.age_task_id_blocks_1024::3            2                       # Occupied blocks per task id
system.cpu.dcache.tags.occ_task_id_percent::1024            1                       # Percentage of cache occupancy per task id
system.cpu.dcache.tags.tag_accesses         104830079                       # Number of tag accesses
system.cpu.dcache.tags.data_accesses        104830079                       # Number of data accesses
system.cpu.itb.walker.pwrStateResidencyTicks::UNDEFINED  83313333500                       # Cumulative time (in ticks) in various power states
system.cpu.itb.stage2_mmu.stage2_tlb.walker.pwrStateResidencyTicks::UNDEFINED  83313333500                       # Cumulative time (in ticks) in various power states

---------- End Simulation Statistics   ----------
