
---------- Begin Simulation Statistics ----------
final_tick                                88157095500                       # Number of ticks from beginning of simulation (restored from checkpoints and never reset)
host_inst_rate                                 286618                       # Simulator instruction rate (inst/s)
host_mem_usage                                 684084                       # Number of bytes of host memory used
host_op_rate                                   287181                       # Simulator op (including micro ops) rate (op/s)
host_seconds                                   348.90                       # Real time elapsed on the host
host_tick_rate                              252673891                       # Simulator tick rate (ticks/s)
sim_freq                                 1000000000000                       # Frequency of simulated ticks
sim_insts                                   100000000                       # Number of instructions simulated
sim_ops                                     100196369                       # Number of ops (including micro ops) simulated
sim_seconds                                  0.088157                       # Number of seconds simulated
sim_ticks                                 88157095500                       # Number of ticks simulated
system.cpu.branchPred.BTBCorrect                    0                       # Number of correct BTB predictions (this stat may not work properly.
system.cpu.branchPred.BTBHitPct             99.695641                       # BTB Hit Percentage
system.cpu.branchPred.BTBHits                 2095395                       # Number of BTB hits
system.cpu.branchPred.BTBLookups              2101792                       # Number of BTB lookups
system.cpu.branchPred.RASInCorrect                  6                       # Number of incorrect RAS predictions.
system.cpu.branchPred.condIncorrect             81343                       # Number of conditional branches incorrect
system.cpu.branchPred.condPredicted           3727680                       # Number of conditional branches predicted
system.cpu.branchPred.indirectHits                291                       # Number of indirect target hits.
system.cpu.branchPred.indirectLookups             808                       # Number of indirect predictor lookups.
system.cpu.branchPred.indirectMisses              517                       # Number of indirect misses.
system.cpu.branchPred.lookups                 4477763                       # Number of BP lookups
system.cpu.branchPred.usedRAS                   65341                       # Number of times the RAS was used to get a target.
system.cpu.branchPredindirectMispredicted          171                       # Number of mispredicted indirect branches.
system.cpu.committedInsts                   100000000                       # Number of instructions committed
system.cpu.committedOps                     100196369                       # Number of ops (including micro ops) committed
system.cpu.cpi                               1.763142                       # CPI: cycles per instruction
system.cpu.discardedOps                        190662                       # Number of ops (including micro ops) which were discarded before commit
system.cpu.dtb.accesses                             0                       # DTB accesses
system.cpu.dtb.align_faults                         0                       # Number of TLB faults due to alignment restrictions
system.cpu.dtb.domain_faults                        0                       # Number of TLB faults due to domain restrictions
system.cpu.dtb.flush_entries                        0                       # Number of entries that have been flushed from TLB
system.cpu.dtb.flush_tlb                            0                       # Number of times complete TLB was flushed
system.cpu.dtb.flush_tlb_asid                       0                       # Number of times TLB was flushed by ASID
system.cpu.dtb.flush_tlb_mva                        0                       # Number of times TLB was flushed by MVA
system.cpu.dtb.flush_tlb_mva_asid                   0                       # Number of times TLB was flushed by MVA & ASID
system.cpu.dtb.hits                                 0                       # DTB hits
system.cpu.dtb.inst_accesses                        0                       # ITB inst accesses
system.cpu.dtb.inst_hits                            0                       # ITB inst hits
system.cpu.dtb.inst_misses                          0                       # ITB inst misses
system.cpu.dtb.misses                               0                       # DTB misses
system.cpu.dtb.perms_faults                         0                       # Number of TLB faults due to permissions restrictions
system.cpu.dtb.prefetch_faults                      0                       # Number of TLB faults due to prefetch
system.cpu.dtb.read_accesses                        0                       # DTB read accesses
system.cpu.dtb.read_hits                            0                       # DTB read hits
system.cpu.dtb.read_misses                          0                       # DTB read misses
system.cpu.dtb.stage2_mmu.stage2_tlb.accesses            0                       # DTB accesses
system.cpu.dtb.stage2_mmu.stage2_tlb.align_faults            0                       # Number of TLB faults due to alignment restrictions
system.cpu.dtb.stage2_mmu.stage2_tlb.domain_faults            0                       # Number of TLB faults due to domain restrictions
system.cpu.dtb.stage2_mmu.stage2_tlb.flush_entries            0                       # Number of entries that have been flushed from TLB
system.cpu.dtb.stage2_mmu.stage2_tlb.flush_tlb            0                       # Number of times complete TLB was flushed
system.cpu.dtb.stage2_mmu.stage2_tlb.flush_tlb_asid            0                       # Number of times TLB was flushed by ASID
system.cpu.dtb.stage2_mmu.stage2_tlb.flush_tlb_mva            0                       # Number of times TLB was flushed by MVA
system.cpu.dtb.stage2_mmu.stage2_tlb.flush_tlb_mva_asid            0                       # Number of times TLB was flushed by MVA & ASID
system.cpu.dtb.stage2_mmu.stage2_tlb.hits            0                       # DTB hits
system.cpu.dtb.stage2_mmu.stage2_tlb.inst_accesses            0                       # ITB inst accesses
system.cpu.dtb.stage2_mmu.stage2_tlb.inst_hits            0                       # ITB inst hits
system.cpu.dtb.stage2_mmu.stage2_tlb.inst_misses            0                       # ITB inst misses
system.cpu.dtb.stage2_mmu.stage2_tlb.misses            0                       # DTB misses
system.cpu.dtb.stage2_mmu.stage2_tlb.perms_faults            0                       # Number of TLB faults due to permissions restrictions
system.cpu.dtb.stage2_mmu.stage2_tlb.prefetch_faults            0                       # Number of TLB faults due to prefetch
system.cpu.dtb.stage2_mmu.stage2_tlb.read_accesses            0                       # DTB read accesses
system.cpu.dtb.stage2_mmu.stage2_tlb.read_hits            0                       # DTB read hits
system.cpu.dtb.stage2_mmu.stage2_tlb.read_misses            0                       # DTB read misses
system.cpu.dtb.stage2_mmu.stage2_tlb.walker.walkRequestOrigin_Requested::Data            0                       # Table walker requests started/completed, data/inst
system.cpu.dtb.stage2_mmu.stage2_tlb.walker.walkRequestOrigin_Requested::Inst            0                       # Table walker requests started/completed, data/inst
system.cpu.dtb.stage2_mmu.stage2_tlb.walker.walkRequestOrigin_Requested::total            0                       # Table walker requests started/completed, data/inst
system.cpu.dtb.stage2_mmu.stage2_tlb.walker.walkRequestOrigin_Completed::Data            0                       # Table walker requests started/completed, data/inst
system.cpu.dtb.stage2_mmu.stage2_tlb.walker.walkRequestOrigin_Completed::Inst            0                       # Table walker requests started/completed, data/inst
system.cpu.dtb.stage2_mmu.stage2_tlb.walker.walkRequestOrigin_Completed::total            0                       # Table walker requests started/completed, data/inst
system.cpu.dtb.stage2_mmu.stage2_tlb.walker.walkRequestOrigin::total            0                       # Table walker requests started/completed, data/inst
system.cpu.dtb.stage2_mmu.stage2_tlb.walker.walks            0                       # Table walker walks requested
system.cpu.dtb.stage2_mmu.stage2_tlb.write_accesses            0                       # DTB write accesses
system.cpu.dtb.stage2_mmu.stage2_tlb.write_hits            0                       # DTB write hits
system.cpu.dtb.stage2_mmu.stage2_tlb.write_misses            0                       # DTB write misses
system.cpu.dtb.walker.walkRequestOrigin_Requested::Data            0                       # Table walker requests started/completed, data/inst
system.cpu.dtb.walker.walkRequestOrigin_Requested::Inst            0                       # Table walker requests started/completed, data/inst
system.cpu.dtb.walker.walkRequestOrigin_Requested::total            0                       # Table walker requests started/completed, data/inst
system.cpu.dtb.walker.walkRequestOrigin_Completed::Data            0                       # Table walker requests started/completed, data/inst
system.cpu.dtb.walker.walkRequestOrigin_Completed::Inst            0                       # Table walker requests started/completed, data/inst
system.cpu.dtb.walker.walkRequestOrigin_Completed::total            0                       # Table walker requests started/completed, data/inst
system.cpu.dtb.walker.walkRequestOrigin::total            0                       # Table walker requests started/completed, data/inst
system.cpu.dtb.walker.walks                         0                       # Table walker walks requested
system.cpu.dtb.write_accesses                       0                       # DTB write accesses
system.cpu.dtb.write_hits                           0                       # DTB write hits
system.cpu.dtb.write_misses                         0                       # DTB write misses
system.cpu.fetch2.amo_instructions                  0                       # Number of memory atomic instructions successfully decoded
system.cpu.fetch2.fp_instructions                   0                       # Number of floating point instructions successfully decoded
system.cpu.fetch2.int_instructions           42610105                       # Number of integer instructions successfully decoded
system.cpu.fetch2.load_instructions          43402268                       # Number of memory load instructions successfully decoded
system.cpu.fetch2.store_instructions         11001395                       # Number of memory store instructions successfully decoded
system.cpu.fetch2.vec_instructions                  0                       # Number of SIMD instructions successfully decoded
system.cpu.idleCycles                        43464280                       # Total number of cycles that the object has spent stopped
system.cpu.ipc                               0.567169                       # IPC: instructions per cycle
system.cpu.itb.accesses                             0                       # DTB accesses
system.cpu.itb.align_faults                         0                       # Number of TLB faults due to alignment restrictions
system.cpu.itb.domain_faults                        0                       # Number of TLB faults due to domain restrictions
system.cpu.itb.flush_entries                        0                       # Number of entries that have been flushed from TLB
system.cpu.itb.flush_tlb                            0                       # Number of times complete TLB was flushed
system.cpu.itb.flush_tlb_asid                       0                       # Number of times TLB was flushed by ASID
system.cpu.itb.flush_tlb_mva                        0                       # Number of times TLB was flushed by MVA
system.cpu.itb.flush_tlb_mva_asid                   0                       # Number of times TLB was flushed by MVA & ASID
system.cpu.itb.hits                                 0                       # DTB hits
system.cpu.itb.inst_accesses                        0                       # ITB inst accesses
system.cpu.itb.inst_hits                            0                       # ITB inst hits
system.cpu.itb.inst_misses                          0                       # ITB inst misses
system.cpu.itb.misses                               0                       # DTB misses
system.cpu.itb.perms_faults                         0                       # Number of TLB faults due to permissions restrictions
system.cpu.itb.prefetch_faults                      0                       # Number of TLB faults due to prefetch
system.cpu.itb.read_accesses                        0                       # DTB read accesses
system.cpu.itb.read_hits                            0                       # DTB read hits
system.cpu.itb.read_misses                          0                       # DTB read misses
system.cpu.itb.stage2_mmu.stage2_tlb.accesses            0                       # DTB accesses
system.cpu.itb.stage2_mmu.stage2_tlb.align_faults            0                       # Number of TLB faults due to alignment restrictions
system.cpu.itb.stage2_mmu.stage2_tlb.domain_faults            0                       # Number of TLB faults due to domain restrictions
system.cpu.itb.stage2_mmu.stage2_tlb.flush_entries            0                       # Number of entries that have been flushed from TLB
system.cpu.itb.stage2_mmu.stage2_tlb.flush_tlb            0                       # Number of times complete TLB was flushed
system.cpu.itb.stage2_mmu.stage2_tlb.flush_tlb_asid            0                       # Number of times TLB was flushed by ASID
system.cpu.itb.stage2_mmu.stage2_tlb.flush_tlb_mva            0                       # Number of times TLB was flushed by MVA
system.cpu.itb.stage2_mmu.stage2_tlb.flush_tlb_mva_asid            0                       # Number of times TLB was flushed by MVA & ASID
system.cpu.itb.stage2_mmu.stage2_tlb.hits            0                       # DTB hits
system.cpu.itb.stage2_mmu.stage2_tlb.inst_accesses            0                       # ITB inst accesses
system.cpu.itb.stage2_mmu.stage2_tlb.inst_hits            0                       # ITB inst hits
system.cpu.itb.stage2_mmu.stage2_tlb.inst_misses            0                       # ITB inst misses
system.cpu.itb.stage2_mmu.stage2_tlb.misses            0                       # DTB misses
system.cpu.itb.stage2_mmu.stage2_tlb.perms_faults            0                       # Number of TLB faults due to permissions restrictions
system.cpu.itb.stage2_mmu.stage2_tlb.prefetch_faults            0                       # Number of TLB faults due to prefetch
system.cpu.itb.stage2_mmu.stage2_tlb.read_accesses            0                       # DTB read accesses
system.cpu.itb.stage2_mmu.stage2_tlb.read_hits            0                       # DTB read hits
system.cpu.itb.stage2_mmu.stage2_tlb.read_misses            0                       # DTB read misses
system.cpu.itb.stage2_mmu.stage2_tlb.walker.walkRequestOrigin_Requested::Data            0                       # Table walker requests started/completed, data/inst
system.cpu.itb.stage2_mmu.stage2_tlb.walker.walkRequestOrigin_Requested::Inst            0                       # Table walker requests started/completed, data/inst
system.cpu.itb.stage2_mmu.stage2_tlb.walker.walkRequestOrigin_Requested::total            0                       # Table walker requests started/completed, data/inst
system.cpu.itb.stage2_mmu.stage2_tlb.walker.walkRequestOrigin_Completed::Data            0                       # Table walker requests started/completed, data/inst
system.cpu.itb.stage2_mmu.stage2_tlb.walker.walkRequestOrigin_Completed::Inst            0                       # Table walker requests started/completed, data/inst
system.cpu.itb.stage2_mmu.stage2_tlb.walker.walkRequestOrigin_Completed::total            0                       # Table walker requests started/completed, data/inst
system.cpu.itb.stage2_mmu.stage2_tlb.walker.walkRequestOrigin::total            0                       # Table walker requests started/completed, data/inst
system.cpu.itb.stage2_mmu.stage2_tlb.walker.walks            0                       # Table walker walks requested
system.cpu.itb.stage2_mmu.stage2_tlb.write_accesses            0                       # DTB write accesses
system.cpu.itb.stage2_mmu.stage2_tlb.write_hits            0                       # DTB write hits
system.cpu.itb.stage2_mmu.stage2_tlb.write_misses            0                       # DTB write misses
system.cpu.itb.walker.walkRequestOrigin_Requested::Data            0                       # Table walker requests started/completed, data/inst
system.cpu.itb.walker.walkRequestOrigin_Requested::Inst            0                       # Table walker requests started/completed, data/inst
system.cpu.itb.walker.walkRequestOrigin_Requested::total            0                       # Table walker requests started/completed, data/inst
system.cpu.itb.walker.walkRequestOrigin_Completed::Data            0                       # Table walker requests started/completed, data/inst
system.cpu.itb.walker.walkRequestOrigin_Completed::Inst            0                       # Table walker requests started/completed, data/inst
system.cpu.itb.walker.walkRequestOrigin_Completed::total            0                       # Table walker requests started/completed, data/inst
system.cpu.itb.walker.walkRequestOrigin::total            0                       # Table walker requests started/completed, data/inst
system.cpu.itb.walker.walks                         0                       # Table walker walks requested
system.cpu.itb.write_accesses                       0                       # DTB write accesses
system.cpu.itb.write_hits                           0                       # DTB write hits
system.cpu.itb.write_misses                         0                       # DTB write misses
system.cpu.numCycles                        176314191                       # number of cpu cycles simulated
system.cpu.numFetchSuspends                         0                       # Number of times Execute suspended instruction fetching
system.cpu.numWorkItemsCompleted                    0                       # number of work items this cpu completed
system.cpu.numWorkItemsStarted                      0                       # number of work items this cpu started
system.cpu.op_class_0::No_OpClass                   0      0.00%      0.00% # Class of committed instruction
system.cpu.op_class_0::IntAlu                46531437     46.44%     46.44% # Class of committed instruction
system.cpu.op_class_0::IntMult                  20720      0.02%     46.46% # Class of committed instruction
system.cpu.op_class_0::IntDiv                       0      0.00%     46.46% # Class of committed instruction
system.cpu.op_class_0::FloatAdd                     0      0.00%     46.46% # Class of committed instruction
system.cpu.op_class_0::FloatCmp                     0      0.00%     46.46% # Class of committed instruction
system.cpu.op_class_0::FloatCvt                     0      0.00%     46.46% # Class of committed instruction
system.cpu.op_class_0::FloatMult                    0      0.00%     46.46% # Class of committed instruction
system.cpu.op_class_0::FloatMultAcc                 0      0.00%     46.46% # Class of committed instruction
system.cpu.op_class_0::FloatDiv                     0      0.00%     46.46% # Class of committed instruction
system.cpu.op_class_0::FloatMisc                    0      0.00%     46.46% # Class of committed instruction
system.cpu.op_class_0::FloatSqrt                    0      0.00%     46.46% # Class of committed instruction
system.cpu.op_class_0::SimdAdd                      0      0.00%     46.46% # Class of committed instruction
system.cpu.op_class_0::SimdAddAcc                   0      0.00%     46.46% # Class of committed instruction
system.cpu.op_class_0::SimdAlu                      0      0.00%     46.46% # Class of committed instruction
system.cpu.op_class_0::SimdCmp                      0      0.00%     46.46% # Class of committed instruction
system.cpu.op_class_0::SimdCvt                      0      0.00%     46.46% # Class of committed instruction
system.cpu.op_class_0::SimdMisc                     0      0.00%     46.46% # Class of committed instruction
system.cpu.op_class_0::SimdMult                     0      0.00%     46.46% # Class of committed instruction
system.cpu.op_class_0::SimdMultAcc                  0      0.00%     46.46% # Class of committed instruction
system.cpu.op_class_0::SimdShift                    0      0.00%     46.46% # Class of committed instruction
system.cpu.op_class_0::SimdShiftAcc                 0      0.00%     46.46% # Class of committed instruction
system.cpu.op_class_0::SimdDiv                      0      0.00%     46.46% # Class of committed instruction
system.cpu.op_class_0::SimdSqrt                     0      0.00%     46.46% # Class of committed instruction
system.cpu.op_class_0::SimdFloatAdd                 0      0.00%     46.46% # Class of committed instruction
system.cpu.op_class_0::SimdFloatAlu                 0      0.00%     46.46% # Class of committed instruction
system.cpu.op_class_0::SimdFloatCmp                 0      0.00%     46.46% # Class of committed instruction
system.cpu.op_class_0::SimdFloatCvt                 0      0.00%     46.46% # Class of committed instruction
system.cpu.op_class_0::SimdFloatDiv                 0      0.00%     46.46% # Class of committed instruction
system.cpu.op_class_0::SimdFloatMisc               18      0.00%     46.46% # Class of committed instruction
system.cpu.op_class_0::SimdFloatMult                0      0.00%     46.46% # Class of committed instruction
system.cpu.op_class_0::SimdFloatMultAcc             0      0.00%     46.46% # Class of committed instruction
system.cpu.op_class_0::SimdFloatSqrt                0      0.00%     46.46% # Class of committed instruction
system.cpu.op_class_0::SimdReduceAdd                0      0.00%     46.46% # Class of committed instruction
system.cpu.op_class_0::SimdReduceAlu                0      0.00%     46.46% # Class of committed instruction
system.cpu.op_class_0::SimdReduceCmp                0      0.00%     46.46% # Class of committed instruction
system.cpu.op_class_0::SimdFloatReduceAdd            0      0.00%     46.46% # Class of committed instruction
system.cpu.op_class_0::SimdFloatReduceCmp            0      0.00%     46.46% # Class of committed instruction
system.cpu.op_class_0::SimdAes                      0      0.00%     46.46% # Class of committed instruction
system.cpu.op_class_0::SimdAesMix                   0      0.00%     46.46% # Class of committed instruction
system.cpu.op_class_0::SimdSha1Hash                 0      0.00%     46.46% # Class of committed instruction
system.cpu.op_class_0::SimdSha1Hash2                0      0.00%     46.46% # Class of committed instruction
system.cpu.op_class_0::SimdSha256Hash               0      0.00%     46.46% # Class of committed instruction
system.cpu.op_class_0::SimdSha256Hash2              0      0.00%     46.46% # Class of committed instruction
system.cpu.op_class_0::SimdShaSigma2                0      0.00%     46.46% # Class of committed instruction
system.cpu.op_class_0::SimdShaSigma3                0      0.00%     46.46% # Class of committed instruction
system.cpu.op_class_0::SimdPredAlu                  0      0.00%     46.46% # Class of committed instruction
system.cpu.op_class_0::MemRead               42693580     42.61%     89.07% # Class of committed instruction
system.cpu.op_class_0::MemWrite              10950614     10.93%    100.00% # Class of committed instruction
system.cpu.op_class_0::FloatMemRead                 0      0.00%    100.00% # Class of committed instruction
system.cpu.op_class_0::FloatMemWrite                0      0.00%    100.00% # Class of committed instruction
system.cpu.op_class_0::IprAccess                    0      0.00%    100.00% # Class of committed instruction
system.cpu.op_class_0::InstPrefetch                 0      0.00%    100.00% # Class of committed instruction
system.cpu.op_class_0::total                100196369                       # Class of committed instruction
system.cpu.tickCycles                       132849911                       # Number of cycles that the object actually ticked
system.cpu.workload.numSyscalls                    84                       # Number of system calls
system.membus.snoop_filter.hit_multi_requests            0                       # Number of requests hitting in the snoop filter with multiple (>1) holders of the requested data.
system.membus.snoop_filter.hit_multi_snoops            0                       # Number of snoops hitting in the snoop filter with multiple (>1) holders of the requested data.
system.membus.snoop_filter.hit_single_requests       268772                       # Number of requests hitting in the snoop filter with a single holder of the requested data.
system.membus.snoop_filter.hit_single_snoops            0                       # Number of snoops hitting in the snoop filter with a single holder of the requested data.
system.membus.snoop_filter.tot_requests        546168                       # Total number of requests made to the snoop filter.
system.membus.snoop_filter.tot_snoops               0                       # Total number of snoops made to the snoop filter.
system.tol2bus.snoop_filter.hit_multi_requests          120                       # Number of requests hitting in the snoop filter with multiple (>1) holders of the requested data.
system.tol2bus.snoop_filter.hit_multi_snoops            7                       # Number of snoops hitting in the snoop filter with multiple (>1) holders of the requested data.
system.tol2bus.snoop_filter.hit_single_requests       710978                       # Number of requests hitting in the snoop filter with a single holder of the requested data.
system.tol2bus.snoop_filter.hit_single_snoops          715                       # Number of snoops hitting in the snoop filter with a single holder of the requested data.
system.tol2bus.snoop_filter.tot_requests      1423422                       # Total number of requests made to the snoop filter.
system.tol2bus.snoop_filter.tot_snoops            722                       # Total number of snoops made to the snoop filter.
system.membus.pwrStateResidencyTicks::UNDEFINED  88157095500                       # Cumulative time (in ticks) in various power states
system.membus.trans_dist::ReadResp             109096                       # Transaction distribution
system.membus.trans_dist::WritebackDirty       190583                       # Transaction distribution
system.membus.trans_dist::CleanEvict            78176                       # Transaction distribution
system.membus.trans_dist::ReadExReq            168313                       # Transaction distribution
system.membus.trans_dist::ReadExResp           168312                       # Transaction distribution
system.membus.trans_dist::ReadSharedReq        109096                       # Transaction distribution
system.membus.pkt_count_system.l2.mem_side::system.mem_ctrls.port       823576                       # Packet count per connected master and slave (bytes)
system.membus.pkt_count::total                 823576                       # Packet count per connected master and slave (bytes)
system.membus.pkt_size_system.l2.mem_side::system.mem_ctrls.port     29951424                       # Cumulative packet size per connected master and slave (bytes)
system.membus.pkt_size::total                29951424                       # Cumulative packet size per connected master and slave (bytes)
system.membus.snoops                                0                       # Total snoops (count)
system.membus.snoopTraffic                          0                       # Total snoop traffic (bytes)
system.membus.snoop_fanout::samples            277409                       # Request fanout histogram
system.membus.snoop_fanout::mean                    0                       # Request fanout histogram
system.membus.snoop_fanout::stdev                   0                       # Request fanout histogram
system.membus.snoop_fanout::underflows              0      0.00%      0.00% # Request fanout histogram
system.membus.snoop_fanout::0                  277409    100.00%    100.00% # Request fanout histogram
system.membus.snoop_fanout::1                       0      0.00%    100.00% # Request fanout histogram
system.membus.snoop_fanout::overflows               0      0.00%    100.00% # Request fanout histogram
system.membus.snoop_fanout::min_value               0                       # Request fanout histogram
system.membus.snoop_fanout::max_value               0                       # Request fanout histogram
system.membus.snoop_fanout::total              277409                       # Request fanout histogram
system.membus.respLayer1.occupancy         1505387500                       # Layer occupancy (ticks)
system.membus.respLayer1.utilization              1.7                       # Layer utilization (%)
system.membus.reqLayer0.occupancy          1366281500                       # Layer occupancy (ticks)
system.membus.reqLayer0.utilization               1.5                       # Layer utilization (%)
system.tol2bus.pwrStateResidencyTicks::UNDEFINED  88157095500                       # Cumulative time (in ticks) in various power states
system.tol2bus.trans_dist::ReadResp            426074                       # Transaction distribution
system.tol2bus.trans_dist::WritebackDirty       806975                       # Transaction distribution
system.tol2bus.trans_dist::WritebackClean          302                       # Transaction distribution
system.tol2bus.trans_dist::CleanEvict          173160                       # Transaction distribution
system.tol2bus.trans_dist::ReadExReq           286372                       # Transaction distribution
system.tol2bus.trans_dist::ReadExResp          286371                       # Transaction distribution
system.tol2bus.trans_dist::ReadCleanReq           747                       # Transaction distribution
system.tol2bus.trans_dist::ReadSharedReq       425327                       # Transaction distribution
system.tol2bus.pkt_count_system.cpu.icache.mem_side::system.l2.cpu_side         1796                       # Packet count per connected master and slave (bytes)
system.tol2bus.pkt_count_system.cpu.dcache.mem_side::system.l2.cpu_side      2134071                       # Packet count per connected master and slave (bytes)
system.tol2bus.pkt_count::total               2135867                       # Packet count per connected master and slave (bytes)
system.tol2bus.pkt_size_system.cpu.icache.mem_side::system.l2.cpu_side        67136                       # Cumulative packet size per connected master and slave (bytes)
system.tol2bus.pkt_size_system.cpu.dcache.mem_side::system.l2.cpu_side     84997760                       # Cumulative packet size per connected master and slave (bytes)
system.tol2bus.pkt_size::total               85064896                       # Cumulative packet size per connected master and slave (bytes)
system.tol2bus.snoops                          269461                       # Total snoops (count)
system.tol2bus.snoopTraffic                  12197312                       # Total snoop traffic (bytes)
system.tol2bus.snoop_fanout::samples           981907                       # Request fanout histogram
system.tol2bus.snoop_fanout::mean            0.000867                       # Request fanout histogram
system.tol2bus.snoop_fanout::stdev           0.029668                       # Request fanout histogram
system.tol2bus.snoop_fanout::underflows             0      0.00%      0.00% # Request fanout histogram
system.tol2bus.snoop_fanout::0                 981063     99.91%     99.91% # Request fanout histogram
system.tol2bus.snoop_fanout::1                    837      0.09%    100.00% # Request fanout histogram
system.tol2bus.snoop_fanout::2                      7      0.00%    100.00% # Request fanout histogram
system.tol2bus.snoop_fanout::overflows              0      0.00%    100.00% # Request fanout histogram
system.tol2bus.snoop_fanout::min_value              0                       # Request fanout histogram
system.tol2bus.snoop_fanout::max_value              2                       # Request fanout histogram
system.tol2bus.snoop_fanout::total             981907                       # Request fanout histogram
system.tol2bus.reqLayer0.occupancy         1328405000                       # Layer occupancy (ticks)
system.tol2bus.reqLayer0.utilization              1.5                       # Layer utilization (%)
system.tol2bus.respLayer1.occupancy        1067548497                       # Layer occupancy (ticks)
system.tol2bus.respLayer1.utilization             1.2                       # Layer utilization (%)
system.tol2bus.respLayer0.occupancy           1120500                       # Layer occupancy (ticks)
system.tol2bus.respLayer0.utilization             0.0                       # Layer utilization (%)
system.voltage_domain.voltage                       1                       # Voltage in Volts
system.clk_domain.clock                          1000                       # Clock period in ticks
system.l2.pwrStateResidencyTicks::UNDEFINED  88157095500                       # Cumulative time (in ticks) in various power states
system.l2.demand_hits::.cpu.inst                   74                       # number of demand (read+write) hits
system.l2.demand_hits::.cpu.data               434960                       # number of demand (read+write) hits
system.l2.demand_hits::total                   435034                       # number of demand (read+write) hits
system.l2.overall_hits::.cpu.inst                  74                       # number of overall hits
system.l2.overall_hits::.cpu.data              434960                       # number of overall hits
system.l2.overall_hits::total                  435034                       # number of overall hits
system.l2.demand_misses::.cpu.inst                673                       # number of demand (read+write) misses
system.l2.demand_misses::.cpu.data             276739                       # number of demand (read+write) misses
system.l2.demand_misses::total                 277412                       # number of demand (read+write) misses
system.l2.overall_misses::.cpu.inst               673                       # number of overall misses
system.l2.overall_misses::.cpu.data            276739                       # number of overall misses
system.l2.overall_misses::total                277412                       # number of overall misses
system.l2.demand_miss_latency::.cpu.inst     53723000                       # number of demand (read+write) miss cycles
system.l2.demand_miss_latency::.cpu.data  24108739000                       # number of demand (read+write) miss cycles
system.l2.demand_miss_latency::total      24162462000                       # number of demand (read+write) miss cycles
system.l2.overall_miss_latency::.cpu.inst     53723000                       # number of overall miss cycles
system.l2.overall_miss_latency::.cpu.data  24108739000                       # number of overall miss cycles
system.l2.overall_miss_latency::total     24162462000                       # number of overall miss cycles
system.l2.demand_accesses::.cpu.inst              747                       # number of demand (read+write) accesses
system.l2.demand_accesses::.cpu.data           711699                       # number of demand (read+write) accesses
system.l2.demand_accesses::total               712446                       # number of demand (read+write) accesses
system.l2.overall_accesses::.cpu.inst             747                       # number of overall (read+write) accesses
system.l2.overall_accesses::.cpu.data          711699                       # number of overall (read+write) accesses
system.l2.overall_accesses::total              712446                       # number of overall (read+write) accesses
system.l2.demand_miss_rate::.cpu.inst        0.900937                       # miss rate for demand accesses
system.l2.demand_miss_rate::.cpu.data        0.388843                       # miss rate for demand accesses
system.l2.demand_miss_rate::total            0.389380                       # miss rate for demand accesses
system.l2.overall_miss_rate::.cpu.inst       0.900937                       # miss rate for overall accesses
system.l2.overall_miss_rate::.cpu.data       0.388843                       # miss rate for overall accesses
system.l2.overall_miss_rate::total           0.389380                       # miss rate for overall accesses
system.l2.demand_avg_miss_latency::.cpu.inst 79826.151560                       # average overall miss latency
system.l2.demand_avg_miss_latency::.cpu.data 87117.244046                       # average overall miss latency
system.l2.demand_avg_miss_latency::total 87099.555895                       # average overall miss latency
system.l2.overall_avg_miss_latency::.cpu.inst 79826.151560                       # average overall miss latency
system.l2.overall_avg_miss_latency::.cpu.data 87117.244046                       # average overall miss latency
system.l2.overall_avg_miss_latency::total 87099.555895                       # average overall miss latency
system.l2.blocked_cycles::no_mshrs                  0                       # number of cycles access was blocked
system.l2.blocked_cycles::no_targets                0                       # number of cycles access was blocked
system.l2.blocked::no_mshrs                         0                       # number of cycles access was blocked
system.l2.blocked::no_targets                       0                       # number of cycles access was blocked
system.l2.avg_blocked_cycles::no_mshrs            nan                       # average number of cycles each access was blocked
system.l2.avg_blocked_cycles::no_targets          nan                       # average number of cycles each access was blocked
system.l2.writebacks::.writebacks              190583                       # number of writebacks
system.l2.writebacks::total                    190583                       # number of writebacks
system.l2.demand_mshr_hits::.cpu.data               3                       # number of demand (read+write) MSHR hits
system.l2.demand_mshr_hits::total                   3                       # number of demand (read+write) MSHR hits
system.l2.overall_mshr_hits::.cpu.data              3                       # number of overall MSHR hits
system.l2.overall_mshr_hits::total                  3                       # number of overall MSHR hits
system.l2.demand_mshr_misses::.cpu.inst           673                       # number of demand (read+write) MSHR misses
system.l2.demand_mshr_misses::.cpu.data        276736                       # number of demand (read+write) MSHR misses
system.l2.demand_mshr_misses::total            277409                       # number of demand (read+write) MSHR misses
system.l2.overall_mshr_misses::.cpu.inst          673                       # number of overall MSHR misses
system.l2.overall_mshr_misses::.cpu.data       276736                       # number of overall MSHR misses
system.l2.overall_mshr_misses::total           277409                       # number of overall MSHR misses
system.l2.demand_mshr_miss_latency::.cpu.inst     46993000                       # number of demand (read+write) MSHR miss cycles
system.l2.demand_mshr_miss_latency::.cpu.data  21341191000                       # number of demand (read+write) MSHR miss cycles
system.l2.demand_mshr_miss_latency::total  21388184000                       # number of demand (read+write) MSHR miss cycles
system.l2.overall_mshr_miss_latency::.cpu.inst     46993000                       # number of overall MSHR miss cycles
system.l2.overall_mshr_miss_latency::.cpu.data  21341191000                       # number of overall MSHR miss cycles
system.l2.overall_mshr_miss_latency::total  21388184000                       # number of overall MSHR miss cycles
system.l2.demand_mshr_miss_rate::.cpu.inst     0.900937                       # mshr miss rate for demand accesses
system.l2.demand_mshr_miss_rate::.cpu.data     0.388839                       # mshr miss rate for demand accesses
system.l2.demand_mshr_miss_rate::total       0.389375                       # mshr miss rate for demand accesses
system.l2.overall_mshr_miss_rate::.cpu.inst     0.900937                       # mshr miss rate for overall accesses
system.l2.overall_mshr_miss_rate::.cpu.data     0.388839                       # mshr miss rate for overall accesses
system.l2.overall_mshr_miss_rate::total      0.389375                       # mshr miss rate for overall accesses
system.l2.demand_avg_mshr_miss_latency::.cpu.inst 69826.151560                       # average overall mshr miss latency
system.l2.demand_avg_mshr_miss_latency::.cpu.data 77117.509106                       # average overall mshr miss latency
system.l2.demand_avg_mshr_miss_latency::total 77099.820121                       # average overall mshr miss latency
system.l2.overall_avg_mshr_miss_latency::.cpu.inst 69826.151560                       # average overall mshr miss latency
system.l2.overall_avg_mshr_miss_latency::.cpu.data 77117.509106                       # average overall mshr miss latency
system.l2.overall_avg_mshr_miss_latency::total 77099.820121                       # average overall mshr miss latency
system.l2.replacements                         269461                       # number of replacements
system.l2.WritebackDirty_hits::.writebacks       616392                       # number of WritebackDirty hits
system.l2.WritebackDirty_hits::total           616392                       # number of WritebackDirty hits
system.l2.WritebackDirty_accesses::.writebacks       616392                       # number of WritebackDirty accesses(hits+misses)
system.l2.WritebackDirty_accesses::total       616392                       # number of WritebackDirty accesses(hits+misses)
system.l2.WritebackClean_hits::.writebacks          293                       # number of WritebackClean hits
system.l2.WritebackClean_hits::total              293                       # number of WritebackClean hits
system.l2.WritebackClean_accesses::.writebacks          293                       # number of WritebackClean accesses(hits+misses)
system.l2.WritebackClean_accesses::total          293                       # number of WritebackClean accesses(hits+misses)
system.l2.CleanEvict_mshr_misses::.writebacks           20                       # number of CleanEvict MSHR misses
system.l2.CleanEvict_mshr_misses::total            20                       # number of CleanEvict MSHR misses
system.l2.CleanEvict_mshr_miss_rate::.writebacks          inf                       # mshr miss rate for CleanEvict accesses
system.l2.CleanEvict_mshr_miss_rate::total          inf                       # mshr miss rate for CleanEvict accesses
system.l2.ReadExReq_hits::.cpu.data            118059                       # number of ReadExReq hits
system.l2.ReadExReq_hits::total                118059                       # number of ReadExReq hits
system.l2.ReadExReq_misses::.cpu.data          168313                       # number of ReadExReq misses
system.l2.ReadExReq_misses::total              168313                       # number of ReadExReq misses
system.l2.ReadExReq_miss_latency::.cpu.data  15110155000                       # number of ReadExReq miss cycles
system.l2.ReadExReq_miss_latency::total   15110155000                       # number of ReadExReq miss cycles
system.l2.ReadExReq_accesses::.cpu.data        286372                       # number of ReadExReq accesses(hits+misses)
system.l2.ReadExReq_accesses::total            286372                       # number of ReadExReq accesses(hits+misses)
system.l2.ReadExReq_miss_rate::.cpu.data     0.587743                       # miss rate for ReadExReq accesses
system.l2.ReadExReq_miss_rate::total         0.587743                       # miss rate for ReadExReq accesses
system.l2.ReadExReq_avg_miss_latency::.cpu.data 89774.141035                       # average ReadExReq miss latency
system.l2.ReadExReq_avg_miss_latency::total 89774.141035                       # average ReadExReq miss latency
system.l2.ReadExReq_mshr_misses::.cpu.data       168313                       # number of ReadExReq MSHR misses
system.l2.ReadExReq_mshr_misses::total         168313                       # number of ReadExReq MSHR misses
system.l2.ReadExReq_mshr_miss_latency::.cpu.data  13427035000                       # number of ReadExReq MSHR miss cycles
system.l2.ReadExReq_mshr_miss_latency::total  13427035000                       # number of ReadExReq MSHR miss cycles
system.l2.ReadExReq_mshr_miss_rate::.cpu.data     0.587743                       # mshr miss rate for ReadExReq accesses
system.l2.ReadExReq_mshr_miss_rate::total     0.587743                       # mshr miss rate for ReadExReq accesses
system.l2.ReadExReq_avg_mshr_miss_latency::.cpu.data 79774.200448                       # average ReadExReq mshr miss latency
system.l2.ReadExReq_avg_mshr_miss_latency::total 79774.200448                       # average ReadExReq mshr miss latency
system.l2.ReadCleanReq_hits::.cpu.inst             74                       # number of ReadCleanReq hits
system.l2.ReadCleanReq_hits::total                 74                       # number of ReadCleanReq hits
system.l2.ReadCleanReq_misses::.cpu.inst          673                       # number of ReadCleanReq misses
system.l2.ReadCleanReq_misses::total              673                       # number of ReadCleanReq misses
system.l2.ReadCleanReq_miss_latency::.cpu.inst     53723000                       # number of ReadCleanReq miss cycles
system.l2.ReadCleanReq_miss_latency::total     53723000                       # number of ReadCleanReq miss cycles
system.l2.ReadCleanReq_accesses::.cpu.inst          747                       # number of ReadCleanReq accesses(hits+misses)
system.l2.ReadCleanReq_accesses::total            747                       # number of ReadCleanReq accesses(hits+misses)
system.l2.ReadCleanReq_miss_rate::.cpu.inst     0.900937                       # miss rate for ReadCleanReq accesses
system.l2.ReadCleanReq_miss_rate::total      0.900937                       # miss rate for ReadCleanReq accesses
system.l2.ReadCleanReq_avg_miss_latency::.cpu.inst 79826.151560                       # average ReadCleanReq miss latency
system.l2.ReadCleanReq_avg_miss_latency::total 79826.151560                       # average ReadCleanReq miss latency
system.l2.ReadCleanReq_mshr_misses::.cpu.inst          673                       # number of ReadCleanReq MSHR misses
system.l2.ReadCleanReq_mshr_misses::total          673                       # number of ReadCleanReq MSHR misses
system.l2.ReadCleanReq_mshr_miss_latency::.cpu.inst     46993000                       # number of ReadCleanReq MSHR miss cycles
system.l2.ReadCleanReq_mshr_miss_latency::total     46993000                       # number of ReadCleanReq MSHR miss cycles
system.l2.ReadCleanReq_mshr_miss_rate::.cpu.inst     0.900937                       # mshr miss rate for ReadCleanReq accesses
system.l2.ReadCleanReq_mshr_miss_rate::total     0.900937                       # mshr miss rate for ReadCleanReq accesses
system.l2.ReadCleanReq_avg_mshr_miss_latency::.cpu.inst 69826.151560                       # average ReadCleanReq mshr miss latency
system.l2.ReadCleanReq_avg_mshr_miss_latency::total 69826.151560                       # average ReadCleanReq mshr miss latency
system.l2.ReadSharedReq_hits::.cpu.data        316901                       # number of ReadSharedReq hits
system.l2.ReadSharedReq_hits::total            316901                       # number of ReadSharedReq hits
system.l2.ReadSharedReq_misses::.cpu.data       108426                       # number of ReadSharedReq misses
system.l2.ReadSharedReq_misses::total          108426                       # number of ReadSharedReq misses
system.l2.ReadSharedReq_miss_latency::.cpu.data   8998584000                       # number of ReadSharedReq miss cycles
system.l2.ReadSharedReq_miss_latency::total   8998584000                       # number of ReadSharedReq miss cycles
system.l2.ReadSharedReq_accesses::.cpu.data       425327                       # number of ReadSharedReq accesses(hits+misses)
system.l2.ReadSharedReq_accesses::total        425327                       # number of ReadSharedReq accesses(hits+misses)
system.l2.ReadSharedReq_miss_rate::.cpu.data     0.254924                       # miss rate for ReadSharedReq accesses
system.l2.ReadSharedReq_miss_rate::total     0.254924                       # miss rate for ReadSharedReq accesses
system.l2.ReadSharedReq_avg_miss_latency::.cpu.data 82992.861491                       # average ReadSharedReq miss latency
system.l2.ReadSharedReq_avg_miss_latency::total 82992.861491                       # average ReadSharedReq miss latency
system.l2.ReadSharedReq_mshr_hits::.cpu.data            3                       # number of ReadSharedReq MSHR hits
system.l2.ReadSharedReq_mshr_hits::total            3                       # number of ReadSharedReq MSHR hits
system.l2.ReadSharedReq_mshr_misses::.cpu.data       108423                       # number of ReadSharedReq MSHR misses
system.l2.ReadSharedReq_mshr_misses::total       108423                       # number of ReadSharedReq MSHR misses
system.l2.ReadSharedReq_mshr_miss_latency::.cpu.data   7914156000                       # number of ReadSharedReq MSHR miss cycles
system.l2.ReadSharedReq_mshr_miss_latency::total   7914156000                       # number of ReadSharedReq MSHR miss cycles
system.l2.ReadSharedReq_mshr_miss_rate::.cpu.data     0.254917                       # mshr miss rate for ReadSharedReq accesses
system.l2.ReadSharedReq_mshr_miss_rate::total     0.254917                       # mshr miss rate for ReadSharedReq accesses
system.l2.ReadSharedReq_avg_mshr_miss_latency::.cpu.data 72993.331673                       # average ReadSharedReq mshr miss latency
system.l2.ReadSharedReq_avg_mshr_miss_latency::total 72993.331673                       # average ReadSharedReq mshr miss latency
system.l2.tags.pwrStateResidencyTicks::UNDEFINED  88157095500                       # Cumulative time (in ticks) in various power states
system.l2.tags.tagsinuse                  8043.041367                       # Cycle average of tags in use
system.l2.tags.total_refs                     1423278                       # Total number of references to valid blocks.
system.l2.tags.sampled_refs                    277653                       # Sample count of references to valid blocks.
system.l2.tags.avg_refs                      5.126103                       # Average number of references to valid blocks.
system.l2.tags.warmup_cycle                     77000                       # Cycle when the warmup percentage was hit.
system.l2.tags.occ_blocks::.writebacks      18.745326                       # Average occupied blocks per requestor
system.l2.tags.occ_blocks::.cpu.inst        27.215603                       # Average occupied blocks per requestor
system.l2.tags.occ_blocks::.cpu.data      7997.080438                       # Average occupied blocks per requestor
system.l2.tags.occ_percent::.writebacks      0.002288                       # Average percentage of cache occupancy
system.l2.tags.occ_percent::.cpu.inst        0.003322                       # Average percentage of cache occupancy
system.l2.tags.occ_percent::.cpu.data        0.976206                       # Average percentage of cache occupancy
system.l2.tags.occ_percent::total            0.981817                       # Average percentage of cache occupancy
system.l2.tags.occ_task_id_blocks::1024          8192                       # Occupied blocks per task id
system.l2.tags.age_task_id_blocks_1024::0          139                       # Occupied blocks per task id
system.l2.tags.age_task_id_blocks_1024::1          351                       # Occupied blocks per task id
system.l2.tags.age_task_id_blocks_1024::2         4055                       # Occupied blocks per task id
system.l2.tags.age_task_id_blocks_1024::3         3644                       # Occupied blocks per task id
system.l2.tags.age_task_id_blocks_1024::4            3                       # Occupied blocks per task id
system.l2.tags.occ_task_id_percent::1024            1                       # Percentage of cache occupancy per task id
system.l2.tags.tag_accesses                  11664069                       # Number of tag accesses
system.l2.tags.data_accesses                 11664069                       # Number of data accesses
system.cpu_voltage_domain.voltage                   1                       # Voltage in Volts
system.mem_ctrls.pwrStateResidencyTicks::UNDEFINED  88157095500                       # Cumulative time (in ticks) in various power states
system.mem_ctrls.bytes_read::.cpu.inst          43072                       # Number of bytes read from this memory
system.mem_ctrls.bytes_read::.cpu.data       17711104                       # Number of bytes read from this memory
system.mem_ctrls.bytes_read::total           17754176                       # Number of bytes read from this memory
system.mem_ctrls.bytes_inst_read::.cpu.inst        43072                       # Number of instructions bytes read from this memory
system.mem_ctrls.bytes_inst_read::total         43072                       # Number of instructions bytes read from this memory
system.mem_ctrls.bytes_written::.writebacks     12197312                       # Number of bytes written to this memory
system.mem_ctrls.bytes_written::total        12197312                       # Number of bytes written to this memory
system.mem_ctrls.num_reads::.cpu.inst             673                       # Number of read requests responded to by this memory
system.mem_ctrls.num_reads::.cpu.data          276736                       # Number of read requests responded to by this memory
system.mem_ctrls.num_reads::total              277409                       # Number of read requests responded to by this memory
system.mem_ctrls.num_writes::.writebacks       190583                       # Number of write requests responded to by this memory
system.mem_ctrls.num_writes::total             190583                       # Number of write requests responded to by this memory
system.mem_ctrls.bw_read::.cpu.inst            488582                       # Total read bandwidth from this memory (bytes/s)
system.mem_ctrls.bw_read::.cpu.data         200903897                       # Total read bandwidth from this memory (bytes/s)
system.mem_ctrls.bw_read::total             201392479                       # Total read bandwidth from this memory (bytes/s)
system.mem_ctrls.bw_inst_read::.cpu.inst       488582                       # Instruction read bandwidth from this memory (bytes/s)
system.mem_ctrls.bw_inst_read::total           488582                       # Instruction read bandwidth from this memory (bytes/s)
system.mem_ctrls.bw_write::.writebacks      138358823                       # Write bandwidth from this memory (bytes/s)
system.mem_ctrls.bw_write::total            138358823                       # Write bandwidth from this memory (bytes/s)
system.mem_ctrls.bw_total::.writebacks      138358823                       # Total bandwidth to/from this memory (bytes/s)
system.mem_ctrls.bw_total::.cpu.inst           488582                       # Total bandwidth to/from this memory (bytes/s)
system.mem_ctrls.bw_total::.cpu.data        200903897                       # Total bandwidth to/from this memory (bytes/s)
system.mem_ctrls.bw_total::total            339751302                       # Total bandwidth to/from this memory (bytes/s)
system.mem_ctrls.avgPriority_.writebacks::samples    190583.00                       # Average QoS priority value for accepted requests
system.mem_ctrls.avgPriority_.cpu.inst::samples       673.00                       # Average QoS priority value for accepted requests
system.mem_ctrls.avgPriority_.cpu.data::samples    276101.00                       # Average QoS priority value for accepted requests
system.mem_ctrls.priorityMinLatency      0.000000018750                       # per QoS priority minimum request to response latency (s)
system.mem_ctrls.priorityMaxLatency      0.010619843250                       # per QoS priority maximum request to response latency (s)
system.mem_ctrls.numReadWriteTurnArounds        11322                       # Number of turnarounds from READ to WRITE
system.mem_ctrls.numWriteReadTurnArounds        11322                       # Number of turnarounds from WRITE to READ
system.mem_ctrls.numStayReadState              752385                       # Number of times bus staying in READ state
system.mem_ctrls.numStayWriteState             179449                       # Number of times bus staying in WRITE state
system.mem_ctrls.readReqs                      277409                       # Number of read requests accepted
system.mem_ctrls.writeReqs                     190583                       # Number of write requests accepted
system.mem_ctrls.readBursts                    277409                       # Number of DRAM read bursts, including those serviced by the write queue
system.mem_ctrls.writeBursts                   190583                       # Number of DRAM write bursts, including those merged in the write queue
system.mem_ctrls.servicedByWrQ                    635                       # Number of DRAM read bursts serviced by the write queue
system.mem_ctrls.mergedWrBursts                     0                       # Number of DRAM write bursts merged with an existing one
system.mem_ctrls.neitherReadNorWriteReqs            0                       # Number of requests that are neither read nor write
system.mem_ctrls.perBankRdBursts::0             17908                       # Per bank write bursts
system.mem_ctrls.perBankRdBursts::1             17228                       # Per bank write bursts
system.mem_ctrls.perBankRdBursts::2             16989                       # Per bank write bursts
system.mem_ctrls.perBankRdBursts::3             17186                       # Per bank write bursts
system.mem_ctrls.perBankRdBursts::4             18046                       # Per bank write bursts
system.mem_ctrls.perBankRdBursts::5             17798                       # Per bank write bursts
system.mem_ctrls.perBankRdBursts::6             16486                       # Per bank write bursts
system.mem_ctrls.perBankRdBursts::7             17192                       # Per bank write bursts
system.mem_ctrls.perBankRdBursts::8             17386                       # Per bank write bursts
system.mem_ctrls.perBankRdBursts::9             17463                       # Per bank write bursts
system.mem_ctrls.perBankRdBursts::10            16696                       # Per bank write bursts
system.mem_ctrls.perBankRdBursts::11            16655                       # Per bank write bursts
system.mem_ctrls.perBankRdBursts::12            17689                       # Per bank write bursts
system.mem_ctrls.perBankRdBursts::13            17820                       # Per bank write bursts
system.mem_ctrls.perBankRdBursts::14            16861                       # Per bank write bursts
system.mem_ctrls.perBankRdBursts::15            17371                       # Per bank write bursts
system.mem_ctrls.perBankWrBursts::0             12267                       # Per bank write bursts
system.mem_ctrls.perBankWrBursts::1             11675                       # Per bank write bursts
system.mem_ctrls.perBankWrBursts::2             11537                       # Per bank write bursts
system.mem_ctrls.perBankWrBursts::3             11824                       # Per bank write bursts
system.mem_ctrls.perBankWrBursts::4             12902                       # Per bank write bursts
system.mem_ctrls.perBankWrBursts::5             12527                       # Per bank write bursts
system.mem_ctrls.perBankWrBursts::6             11134                       # Per bank write bursts
system.mem_ctrls.perBankWrBursts::7             11729                       # Per bank write bursts
system.mem_ctrls.perBankWrBursts::8             11932                       # Per bank write bursts
system.mem_ctrls.perBankWrBursts::9             12149                       # Per bank write bursts
system.mem_ctrls.perBankWrBursts::10            11489                       # Per bank write bursts
system.mem_ctrls.perBankWrBursts::11            11520                       # Per bank write bursts
system.mem_ctrls.perBankWrBursts::12            12259                       # Per bank write bursts
system.mem_ctrls.perBankWrBursts::13            12354                       # Per bank write bursts
system.mem_ctrls.perBankWrBursts::14            11333                       # Per bank write bursts
system.mem_ctrls.perBankWrBursts::15            11929                       # Per bank write bursts
system.mem_ctrls.avgRdQLen                       1.10                       # Average read queue length when enqueuing
system.mem_ctrls.avgWrQLen                      25.59                       # Average write queue length when enqueuing
system.mem_ctrls.totQLat                   4759419750                       # Total ticks spent queuing
system.mem_ctrls.totBusLat                 1383870000                       # Total ticks spent in databus transfers
system.mem_ctrls.totMemAccLat              9948932250                       # Total ticks spent from burst creation until serviced by the DRAM
system.mem_ctrls.avgQLat                     17196.05                       # Average queueing delay per DRAM burst
system.mem_ctrls.avgBusLat                    5000.00                       # Average bus latency per DRAM burst
system.mem_ctrls.avgMemAccLat                35946.05                       # Average memory access latency per DRAM burst
system.mem_ctrls.numRdRetry                         0                       # Number of times read queue was full causing retry
system.mem_ctrls.numWrRetry                         0                       # Number of times write queue was full causing retry
system.mem_ctrls.readRowHits                   154617                       # Number of row buffer hits during reads
system.mem_ctrls.writeRowHits                   98630                       # Number of row buffer hits during writes
system.mem_ctrls.readRowHitRate                 55.86                       # Row buffer hit rate for reads
system.mem_ctrls.writeRowHitRate                51.75                       # Row buffer hit rate for writes
system.mem_ctrls.readPktSize::0                     0                       # Read request sizes (log2)
system.mem_ctrls.readPktSize::1                     0                       # Read request sizes (log2)
system.mem_ctrls.readPktSize::2                     0                       # Read request sizes (log2)
system.mem_ctrls.readPktSize::3                     0                       # Read request sizes (log2)
system.mem_ctrls.readPktSize::4                     0                       # Read request sizes (log2)
system.mem_ctrls.readPktSize::5                     0                       # Read request sizes (log2)
system.mem_ctrls.readPktSize::6                277409                       # Read request sizes (log2)
system.mem_ctrls.writePktSize::0                    0                       # Write request sizes (log2)
system.mem_ctrls.writePktSize::1                    0                       # Write request sizes (log2)
system.mem_ctrls.writePktSize::2                    0                       # Write request sizes (log2)
system.mem_ctrls.writePktSize::3                    0                       # Write request sizes (log2)
system.mem_ctrls.writePktSize::4                    0                       # Write request sizes (log2)
system.mem_ctrls.writePktSize::5                    0                       # Write request sizes (log2)
system.mem_ctrls.writePktSize::6               190583                       # Write request sizes (log2)
system.mem_ctrls.rdQLenPdf::0                  206565                       # What read queue length does an incoming req see
system.mem_ctrls.rdQLenPdf::1                   66659                       # What read queue length does an incoming req see
system.mem_ctrls.rdQLenPdf::2                    3097                       # What read queue length does an incoming req see
system.mem_ctrls.rdQLenPdf::3                     452                       # What read queue length does an incoming req see
system.mem_ctrls.rdQLenPdf::4                       1                       # What read queue length does an incoming req see
system.mem_ctrls.rdQLenPdf::5                       0                       # What read queue length does an incoming req see
system.mem_ctrls.rdQLenPdf::6                       0                       # What read queue length does an incoming req see
system.mem_ctrls.rdQLenPdf::7                       0                       # What read queue length does an incoming req see
system.mem_ctrls.rdQLenPdf::8                       0                       # What read queue length does an incoming req see
system.mem_ctrls.rdQLenPdf::9                       0                       # What read queue length does an incoming req see
system.mem_ctrls.rdQLenPdf::10                      0                       # What read queue length does an incoming req see
system.mem_ctrls.rdQLenPdf::11                      0                       # What read queue length does an incoming req see
system.mem_ctrls.rdQLenPdf::12                      0                       # What read queue length does an incoming req see
system.mem_ctrls.rdQLenPdf::13                      0                       # What read queue length does an incoming req see
system.mem_ctrls.rdQLenPdf::14                      0                       # What read queue length does an incoming req see
system.mem_ctrls.rdQLenPdf::15                      0                       # What read queue length does an incoming req see
system.mem_ctrls.rdQLenPdf::16                      0                       # What read queue length does an incoming req see
system.mem_ctrls.rdQLenPdf::17                      0                       # What read queue length does an incoming req see
system.mem_ctrls.rdQLenPdf::18                      0                       # What read queue length does an incoming req see
system.mem_ctrls.rdQLenPdf::19                      0                       # What read queue length does an incoming req see
system.mem_ctrls.rdQLenPdf::20                      0                       # What read queue length does an incoming req see
system.mem_ctrls.rdQLenPdf::21                      0                       # What read queue length does an incoming req see
system.mem_ctrls.rdQLenPdf::22                      0                       # What read queue length does an incoming req see
system.mem_ctrls.rdQLenPdf::23                      0                       # What read queue length does an incoming req see
system.mem_ctrls.rdQLenPdf::24                      0                       # What read queue length does an incoming req see
system.mem_ctrls.rdQLenPdf::25                      0                       # What read queue length does an incoming req see
system.mem_ctrls.rdQLenPdf::26                      0                       # What read queue length does an incoming req see
system.mem_ctrls.rdQLenPdf::27                      0                       # What read queue length does an incoming req see
system.mem_ctrls.rdQLenPdf::28                      0                       # What read queue length does an incoming req see
system.mem_ctrls.rdQLenPdf::29                      0                       # What read queue length does an incoming req see
system.mem_ctrls.rdQLenPdf::30                      0                       # What read queue length does an incoming req see
system.mem_ctrls.rdQLenPdf::31                      0                       # What read queue length does an incoming req see
system.mem_ctrls.wrQLenPdf::0                       1                       # What write queue length does an incoming req see
system.mem_ctrls.wrQLenPdf::1                       1                       # What write queue length does an incoming req see
system.mem_ctrls.wrQLenPdf::2                       1                       # What write queue length does an incoming req see
system.mem_ctrls.wrQLenPdf::3                       1                       # What write queue length does an incoming req see
system.mem_ctrls.wrQLenPdf::4                       1                       # What write queue length does an incoming req see
system.mem_ctrls.wrQLenPdf::5                       1                       # What write queue length does an incoming req see
system.mem_ctrls.wrQLenPdf::6                       1                       # What write queue length does an incoming req see
system.mem_ctrls.wrQLenPdf::7                       1                       # What write queue length does an incoming req see
system.mem_ctrls.wrQLenPdf::8                       1                       # What write queue length does an incoming req see
system.mem_ctrls.wrQLenPdf::9                       1                       # What write queue length does an incoming req see
system.mem_ctrls.wrQLenPdf::10                      1                       # What write queue length does an incoming req see
system.mem_ctrls.wrQLenPdf::11                      1                       # What write queue length does an incoming req see
system.mem_ctrls.wrQLenPdf::12                      1                       # What write queue length does an incoming req see
system.mem_ctrls.wrQLenPdf::13                      1                       # What write queue length does an incoming req see
system.mem_ctrls.wrQLenPdf::14                      1                       # What write queue length does an incoming req see
system.mem_ctrls.wrQLenPdf::15                   4339                       # What write queue length does an incoming req see
system.mem_ctrls.wrQLenPdf::16                   4469                       # What write queue length does an incoming req see
system.mem_ctrls.wrQLenPdf::17                  10471                       # What write queue length does an incoming req see
system.mem_ctrls.wrQLenPdf::18                  11487                       # What write queue length does an incoming req see
system.mem_ctrls.wrQLenPdf::19                  11446                       # What write queue length does an incoming req see
system.mem_ctrls.wrQLenPdf::20                  11556                       # What write queue length does an incoming req see
system.mem_ctrls.wrQLenPdf::21                  11418                       # What write queue length does an incoming req see
system.mem_ctrls.wrQLenPdf::22                  11421                       # What write queue length does an incoming req see
system.mem_ctrls.wrQLenPdf::23                  11400                       # What write queue length does an incoming req see
system.mem_ctrls.wrQLenPdf::24                  11486                       # What write queue length does an incoming req see
system.mem_ctrls.wrQLenPdf::25                  11448                       # What write queue length does an incoming req see
system.mem_ctrls.wrQLenPdf::26                  11422                       # What write queue length does an incoming req see
system.mem_ctrls.wrQLenPdf::27                  11385                       # What write queue length does an incoming req see
system.mem_ctrls.wrQLenPdf::28                  11453                       # What write queue length does an incoming req see
system.mem_ctrls.wrQLenPdf::29                  11387                       # What write queue length does an incoming req see
system.mem_ctrls.wrQLenPdf::30                  11326                       # What write queue length does an incoming req see
system.mem_ctrls.wrQLenPdf::31                  11324                       # What write queue length does an incoming req see
system.mem_ctrls.wrQLenPdf::32                  11322                       # What write queue length does an incoming req see
system.mem_ctrls.wrQLenPdf::33                      8                       # What write queue length does an incoming req see
system.mem_ctrls.wrQLenPdf::34                      0                       # What write queue length does an incoming req see
system.mem_ctrls.wrQLenPdf::35                      0                       # What write queue length does an incoming req see
system.mem_ctrls.wrQLenPdf::36                      0                       # What write queue length does an incoming req see
system.mem_ctrls.wrQLenPdf::37                      0                       # What write queue length does an incoming req see
system.mem_ctrls.wrQLenPdf::38                      0                       # What write queue length does an incoming req see
system.mem_ctrls.wrQLenPdf::39                      0                       # What write queue length does an incoming req see
system.mem_ctrls.wrQLenPdf::40                      0                       # What write queue length does an incoming req see
system.mem_ctrls.wrQLenPdf::41                      0                       # What write queue length does an incoming req see
system.mem_ctrls.wrQLenPdf::42                      0                       # What write queue length does an incoming req see
system.mem_ctrls.wrQLenPdf::43                      0                       # What write queue length does an incoming req see
system.mem_ctrls.wrQLenPdf::44                      0                       # What write queue length does an incoming req see
system.mem_ctrls.wrQLenPdf::45                      0                       # What write queue length does an incoming req see
system.mem_ctrls.wrQLenPdf::46                      0                       # What write queue length does an incoming req see
system.mem_ctrls.wrQLenPdf::47                      0                       # What write queue length does an incoming req see
system.mem_ctrls.wrQLenPdf::48                      0                       # What write queue length does an incoming req see
system.mem_ctrls.wrQLenPdf::49                      0                       # What write queue length does an incoming req see
system.mem_ctrls.wrQLenPdf::50                      0                       # What write queue length does an incoming req see
system.mem_ctrls.wrQLenPdf::51                      0                       # What write queue length does an incoming req see
system.mem_ctrls.wrQLenPdf::52                      0                       # What write queue length does an incoming req see
system.mem_ctrls.wrQLenPdf::53                      0                       # What write queue length does an incoming req see
system.mem_ctrls.wrQLenPdf::54                      0                       # What write queue length does an incoming req see
system.mem_ctrls.wrQLenPdf::55                      0                       # What write queue length does an incoming req see
system.mem_ctrls.wrQLenPdf::56                      0                       # What write queue length does an incoming req see
system.mem_ctrls.wrQLenPdf::57                      0                       # What write queue length does an incoming req see
system.mem_ctrls.wrQLenPdf::58                      0                       # What write queue length does an incoming req see
system.mem_ctrls.wrQLenPdf::59                      0                       # What write queue length does an incoming req see
system.mem_ctrls.wrQLenPdf::60                      0                       # What write queue length does an incoming req see
system.mem_ctrls.wrQLenPdf::61                      0                       # What write queue length does an incoming req see
system.mem_ctrls.wrQLenPdf::62                      0                       # What write queue length does an incoming req see
system.mem_ctrls.wrQLenPdf::63                      0                       # What write queue length does an incoming req see
system.mem_ctrls.bytesPerActivate::samples       214078                       # Bytes accessed per row activation
system.mem_ctrls.bytesPerActivate::mean    139.709526                       # Bytes accessed per row activation
system.mem_ctrls.bytesPerActivate::gmean    92.081061                       # Bytes accessed per row activation
system.mem_ctrls.bytesPerActivate::stdev   199.464702                       # Bytes accessed per row activation
system.mem_ctrls.bytesPerActivate::0-127       158202     73.90%     73.90% # Bytes accessed per row activation
system.mem_ctrls.bytesPerActivate::128-255        30871     14.42%     88.32% # Bytes accessed per row activation
system.mem_ctrls.bytesPerActivate::256-383         4364      2.04%     90.36% # Bytes accessed per row activation
system.mem_ctrls.bytesPerActivate::384-511         2126      0.99%     91.35% # Bytes accessed per row activation
system.mem_ctrls.bytesPerActivate::512-639        10112      4.72%     96.07% # Bytes accessed per row activation
system.mem_ctrls.bytesPerActivate::640-767          661      0.31%     96.38% # Bytes accessed per row activation
system.mem_ctrls.bytesPerActivate::768-895          809      0.38%     96.76% # Bytes accessed per row activation
system.mem_ctrls.bytesPerActivate::896-1023          437      0.20%     96.97% # Bytes accessed per row activation
system.mem_ctrls.bytesPerActivate::1024-1151         6496      3.03%    100.00% # Bytes accessed per row activation
system.mem_ctrls.bytesPerActivate::total       214078                       # Bytes accessed per row activation
system.mem_ctrls.rdPerTurnAround::samples        11322                       # Reads before turning the bus around for writes
system.mem_ctrls.rdPerTurnAround::mean      24.445151                       # Reads before turning the bus around for writes
system.mem_ctrls.rdPerTurnAround::gmean     21.843482                       # Reads before turning the bus around for writes
system.mem_ctrls.rdPerTurnAround::stdev     38.403538                       # Reads before turning the bus around for writes
system.mem_ctrls.rdPerTurnAround::0-63          11196     98.89%     98.89% # Reads before turning the bus around for writes
system.mem_ctrls.rdPerTurnAround::64-127           69      0.61%     99.50% # Reads before turning the bus around for writes
system.mem_ctrls.rdPerTurnAround::128-191            8      0.07%     99.57% # Reads before turning the bus around for writes
system.mem_ctrls.rdPerTurnAround::192-255            8      0.07%     99.64% # Reads before turning the bus around for writes
system.mem_ctrls.rdPerTurnAround::256-319           27      0.24%     99.88% # Reads before turning the bus around for writes
[...]
system.cpu.icache.ReadReq_mshr_misses::.cpu.inst          747                       # number of ReadReq MSHR misses
system.cpu.icache.ReadReq_mshr_misses::total          747                       # number of ReadReq MSHR misses
system.cpu.icache.ReadReq_mshr_miss_latency::.cpu.inst     55638500                       # number of ReadReq MSHR miss cycles
system.cpu.icache.ReadReq_mshr_miss_latency::total     55638500                       # number of ReadReq MSHR miss cycles
system.cpu.icache.ReadReq_mshr_miss_rate::.cpu.inst     0.000077                       # mshr miss rate for ReadReq accesses
system.cpu.icache.ReadReq_mshr_miss_rate::total     0.000077                       # mshr miss rate for ReadReq accesses
system.cpu.icache.ReadReq_avg_mshr_miss_latency::.cpu.inst 74482.597055                       # average ReadReq mshr miss latency
system.cpu.icache.ReadReq_avg_mshr_miss_latency::total 74482.597055                       # average ReadReq mshr miss latency
system.cpu.icache.tags.pwrStateResidencyTicks::UNDEFINED  88157095500                       # Cumulative time (in ticks) in various power states
system.cpu.icache.tags.tagsinuse           362.368405                       # Cycle average of tags in use
system.cpu.icache.tags.total_refs             9663413                       # Total number of references to valid blocks.
system.cpu.icache.tags.sampled_refs               747                       # Sample count of references to valid blocks.
system.cpu.icache.tags.avg_refs          12936.295850                       # Average number of references to valid blocks.
system.cpu.icache.tags.warmup_cycle             87500                       # Cycle when the warmup percentage was hit.
system.cpu.icache.tags.occ_blocks::.cpu.inst   362.368405                       # Average occupied blocks per requestor
system.cpu.icache.tags.occ_percent::.cpu.inst     0.707751                       # Average percentage of cache occupancy
system.cpu.icache.tags.occ_percent::total     0.707751                       # Average percentage of cache occupancy
system.cpu.icache.tags.occ_task_id_blocks::1024          445                       # Occupied blocks per task id
system.cpu.icache.tags.age_task_id_blocks_1024::3          106                       # Occupied blocks per task id
system.cpu.icache.tags.age_task_id_blocks_1024::4          339                       # Occupied blocks per task id
system.cpu.icache.tags.occ_task_id_percent::1024     0.869141                       # Percentage of cache occupancy per task id
system.cpu.icache.tags.tag_accesses          19327573                       # Number of tag accesses
system.cpu.icache.tags.data_accesses         19327573                       # Number of data accesses
system.cpu.dtb.walker.pwrStateResidencyTicks::UNDEFINED  88157095500                       # Cumulative time (in ticks) in various power states
system.cpu.dtb.stage2_mmu.stage2_tlb.walker.pwrStateResidencyTicks::UNDEFINED  88157095500                       # Cumulative time (in ticks) in various power states
system.cpu.dcache.pwrStateResidencyTicks::UNDEFINED  88157095500                       # Cumulative time (in ticks) in various power states
system.cpu.dcache.demand_hits::.cpu.data     51315276                       # number of demand (read+write) hits
system.cpu.dcache.demand_hits::total         51315276                       # number of demand (read+write) hits
system.cpu.dcache.overall_hits::.cpu.data     51315785                       # number of overall hits
system.cpu.dcache.overall_hits::total        51315785                       # number of overall hits
system.cpu.dcache.demand_misses::.cpu.data       762421                       # number of demand (read+write) misses
system.cpu.dcache.demand_misses::total         762421                       # number of demand (read+write) misses
system.cpu.dcache.overall_misses::.cpu.data       770331                       # number of overall misses
system.cpu.dcache.overall_misses::total        770331                       # number of overall misses
system.cpu.dcache.demand_miss_latency::.cpu.data  31479527992                       # number of demand (read+write) miss cycles
system.cpu.dcache.demand_miss_latency::total  31479527992                       # number of demand (read+write) miss cycles
system.cpu.dcache.overall_miss_latency::.cpu.data  31479527992                       # number of overall miss cycles
system.cpu.dcache.overall_miss_latency::total  31479527992                       # number of overall miss cycles
system.cpu.dcache.demand_accesses::.cpu.data     52077697                       # number of demand (read+write) accesses
system.cpu.dcache.demand_accesses::total     52077697                       # number of demand (read+write) accesses
system.cpu.dcache.overall_accesses::.cpu.data     52086116                       # number of overall (read+write) accesses
system.cpu.dcache.overall_accesses::total     52086116                       # number of overall (read+write) accesses
system.cpu.dcache.demand_miss_rate::.cpu.data     0.014640                       # miss rate for demand accesses
system.cpu.dcache.demand_miss_rate::total     0.014640                       # miss rate for demand accesses
system.cpu.dcache.overall_miss_rate::.cpu.data     0.014790                       # miss rate for overall accesses
system.cpu.dcache.overall_miss_rate::total     0.014790                       # miss rate for overall accesses
system.cpu.dcache.demand_avg_miss_latency::.cpu.data 41288.904676                       # average overall miss latency
system.cpu.dcache.demand_avg_miss_latency::total 41288.904676                       # average overall miss latency
system.cpu.dcache.overall_avg_miss_latency::.cpu.data 40864.937270                       # average overall miss latency
system.cpu.dcache.overall_avg_miss_latency::total 40864.937270                       # average overall miss latency
system.cpu.dcache.blocked_cycles::no_mshrs       196859                       # number of cycles access was blocked
system.cpu.dcache.blocked_cycles::no_targets            0                       # number of cycles access was blocked
system.cpu.dcache.blocked::no_mshrs              3240                       # number of cycles access was blocked
system.cpu.dcache.blocked::no_targets               0                       # number of cycles access was blocked
system.cpu.dcache.avg_blocked_cycles::no_mshrs    60.758951                       # average number of cycles each access was blocked
system.cpu.dcache.avg_blocked_cycles::no_targets          nan                       # average number of cycles each access was blocked
system.cpu.dcache.writebacks::.writebacks       616392                       # number of writebacks
system.cpu.dcache.writebacks::total            616392                       # number of writebacks
system.cpu.dcache.demand_mshr_hits::.cpu.data        58627                       # number of demand (read+write) MSHR hits
system.cpu.dcache.demand_mshr_hits::total        58627                       # number of demand (read+write) MSHR hits
system.cpu.dcache.overall_mshr_hits::.cpu.data        58627                       # number of overall MSHR hits
system.cpu.dcache.overall_mshr_hits::total        58627                       # number of overall MSHR hits
system.cpu.dcache.demand_mshr_misses::.cpu.data       703794                       # number of demand (read+write) MSHR misses
system.cpu.dcache.demand_mshr_misses::total       703794                       # number of demand (read+write) MSHR misses
system.cpu.dcache.overall_mshr_misses::.cpu.data       711699                       # number of overall MSHR misses
system.cpu.dcache.overall_mshr_misses::total       711699                       # number of overall MSHR misses
system.cpu.dcache.demand_mshr_miss_latency::.cpu.data  29144770500                       # number of demand (read+write) MSHR miss cycles
system.cpu.dcache.demand_mshr_miss_latency::total  29144770500                       # number of demand (read+write) MSHR miss cycles
system.cpu.dcache.overall_mshr_miss_latency::.cpu.data  29748374999                       # number of overall MSHR miss cycles
system.cpu.dcache.overall_mshr_miss_latency::total  29748374999                       # number of overall MSHR miss cycles
system.cpu.dcache.demand_mshr_miss_rate::.cpu.data     0.013514                       # mshr miss rate for demand accesses
system.cpu.dcache.demand_mshr_miss_rate::total     0.013514                       # mshr miss rate for demand accesses
system.cpu.dcache.overall_mshr_miss_rate::.cpu.data     0.013664                       # mshr miss rate for overall accesses
system.cpu.dcache.overall_mshr_miss_rate::total     0.013664                       # mshr miss rate for overall accesses
system.cpu.dcache.demand_avg_mshr_miss_latency::.cpu.data 41410.939138                       # average overall mshr miss latency
system.cpu.dcache.demand_avg_mshr_miss_latency::total 41410.939138                       # average overall mshr miss latency
system.cpu.dcache.overall_avg_mshr_miss_latency::.cpu.data 41799.096246                       # average overall mshr miss latency
system.cpu.dcache.overall_avg_mshr_miss_latency::total 41799.096246                       # average overall mshr miss latency
system.cpu.dcache.replacements                 710674                       # number of replacements
system.cpu.dcache.ReadReq_hits::.cpu.data     40710173                       # number of ReadReq hits
system.cpu.dcache.ReadReq_hits::total        40710173                       # number of ReadReq hits
system.cpu.dcache.ReadReq_misses::.cpu.data       417433                       # number of ReadReq misses
system.cpu.dcache.ReadReq_misses::total        417433                       # number of ReadReq misses
system.cpu.dcache.ReadReq_miss_latency::.cpu.data  12781604000                       # number of ReadReq miss cycles
system.cpu.dcache.ReadReq_miss_latency::total  12781604000                       # number of ReadReq miss cycles
system.cpu.dcache.ReadReq_accesses::.cpu.data     41127606                       # number of ReadReq accesses(hits+misses)
system.cpu.dcache.ReadReq_accesses::total     41127606                       # number of ReadReq accesses(hits+misses)
system.cpu.dcache.ReadReq_miss_rate::.cpu.data     0.010150                       # miss rate for ReadReq accesses
system.cpu.dcache.ReadReq_miss_rate::total     0.010150                       # miss rate for ReadReq accesses
system.cpu.dcache.ReadReq_avg_miss_latency::.cpu.data 30619.534153                       # average ReadReq miss latency
system.cpu.dcache.ReadReq_avg_miss_latency::total 30619.534153                       # average ReadReq miss latency
system.cpu.dcache.ReadReq_mshr_hits::.cpu.data           11                       # number of ReadReq MSHR hits
system.cpu.dcache.ReadReq_mshr_hits::total           11                       # number of ReadReq MSHR hits
system.cpu.dcache.ReadReq_mshr_misses::.cpu.data       417422                       # number of ReadReq MSHR misses
system.cpu.dcache.ReadReq_mshr_misses::total       417422                       # number of ReadReq MSHR misses
system.cpu.dcache.ReadReq_mshr_miss_latency::.cpu.data  12363184500                       # number of ReadReq MSHR miss cycles
system.cpu.dcache.ReadReq_mshr_miss_latency::total  12363184500                       # number of ReadReq MSHR miss cycles
system.cpu.dcache.ReadReq_mshr_miss_rate::.cpu.data     0.010149                       # mshr miss rate for ReadReq accesses
system.cpu.dcache.ReadReq_mshr_miss_rate::total     0.010149                       # mshr miss rate for ReadReq accesses
system.cpu.dcache.ReadReq_avg_mshr_miss_latency::.cpu.data 29617.951378                       # average ReadReq mshr miss latency
system.cpu.dcache.ReadReq_avg_mshr_miss_latency::total 29617.951378                       # average ReadReq mshr miss latency
system.cpu.dcache.WriteReq_hits::.cpu.data     10605103                       # number of WriteReq hits
system.cpu.dcache.WriteReq_hits::total       10605103                       # number of WriteReq hits
system.cpu.dcache.WriteReq_misses::.cpu.data       344988                       # number of WriteReq misses
system.cpu.dcache.WriteReq_misses::total       344988                       # number of WriteReq misses
system.cpu.dcache.WriteReq_miss_latency::.cpu.data  18697923992                       # number of WriteReq miss cycles
system.cpu.dcache.WriteReq_miss_latency::total  18697923992                       # number of WriteReq miss cycles
system.cpu.dcache.WriteReq_accesses::.cpu.data     10950091                       # number of WriteReq accesses(hits+misses)
system.cpu.dcache.WriteReq_accesses::total     10950091                       # number of WriteReq accesses(hits+misses)
system.cpu.dcache.WriteReq_miss_rate::.cpu.data     0.031505                       # miss rate for WriteReq accesses
system.cpu.dcache.WriteReq_miss_rate::total     0.031505                       # miss rate for WriteReq accesses
system.cpu.dcache.WriteReq_avg_miss_latency::.cpu.data 54198.766311                       # average WriteReq miss latency
system.cpu.dcache.WriteReq_avg_miss_latency::total 54198.766311                       # average WriteReq miss latency
system.cpu.dcache.WriteReq_mshr_hits::.cpu.data        58616                       # number of WriteReq MSHR hits
system.cpu.dcache.WriteReq_mshr_hits::total        58616                       # number of WriteReq MSHR hits
system.cpu.dcache.WriteReq_mshr_misses::.cpu.data       286372                       # number of WriteReq MSHR misses
system.cpu.dcache.WriteReq_mshr_misses::total       286372                       # number of WriteReq MSHR misses
system.cpu.dcache.WriteReq_mshr_miss_latency::.cpu.data  16781586000                       # number of WriteReq MSHR miss cycles
system.cpu.dcache.WriteReq_mshr_miss_latency::total  16781586000                       # number of WriteReq MSHR miss cycles
system.cpu.dcache.WriteReq_mshr_miss_rate::.cpu.data     0.026152                       # mshr miss rate for WriteReq accesses
system.cpu.dcache.WriteReq_mshr_miss_rate::total     0.026152                       # mshr miss rate for WriteReq accesses
system.cpu.dcache.WriteReq_avg_mshr_miss_latency::.cpu.data 58600.652298                       # average WriteReq mshr miss latency
system.cpu.dcache.WriteReq_avg_mshr_miss_latency::total 58600.652298                       # average WriteReq mshr miss latency
system.cpu.dcache.SoftPFReq_hits::.cpu.data          509                       # number of SoftPFReq hits
system.cpu.dcache.SoftPFReq_hits::total           509                       # number of SoftPFReq hits
system.cpu.dcache.SoftPFReq_misses::.cpu.data         7910                       # number of SoftPFReq misses
system.cpu.dcache.SoftPFReq_misses::total         7910                       # number of SoftPFReq misses
system.cpu.dcache.SoftPFReq_accesses::.cpu.data         8419                       # number of SoftPFReq accesses(hits+misses)
system.cpu.dcache.SoftPFReq_accesses::total         8419                       # number of SoftPFReq accesses(hits+misses)
system.cpu.dcache.SoftPFReq_miss_rate::.cpu.data     0.939542                       # miss rate for SoftPFReq accesses
system.cpu.dcache.SoftPFReq_miss_rate::total     0.939542                       # miss rate for SoftPFReq accesses
system.cpu.dcache.SoftPFReq_mshr_misses::.cpu.data         7905                       # number of SoftPFReq MSHR misses
system.cpu.dcache.SoftPFReq_mshr_misses::total         7905                       # number of SoftPFReq MSHR misses
system.cpu.dcache.SoftPFReq_mshr_miss_latency::.cpu.data    603604499                       # number of SoftPFReq MSHR miss cycles
system.cpu.dcache.SoftPFReq_mshr_miss_latency::total    603604499                       # number of SoftPFReq MSHR miss cycles
system.cpu.dcache.SoftPFReq_mshr_miss_rate::.cpu.data     0.938948                       # mshr miss rate for SoftPFReq accesses
system.cpu.dcache.SoftPFReq_mshr_miss_rate::total     0.938948                       # mshr miss rate for SoftPFReq accesses
system.cpu.dcache.SoftPFReq_avg_mshr_miss_latency::.cpu.data 76357.305376                       # average SoftPFReq mshr miss latency
system.cpu.dcache.SoftPFReq_avg_mshr_miss_latency::total 76357.305376                       # average SoftPFReq mshr miss latency
system.cpu.dcache.LoadLockedReq_hits::.cpu.data           38                       # number of LoadLockedReq hits
system.cpu.dcache.LoadLockedReq_hits::total           38                       # number of LoadLockedReq hits
system.cpu.dcache.LoadLockedReq_accesses::.cpu.data           38                       # number of LoadLockedReq accesses(hits+misses)
system.cpu.dcache.LoadLockedReq_accesses::total           38                       # number of LoadLockedReq accesses(hits+misses)
system.cpu.dcache.StoreCondReq_hits::.cpu.data           38                       # number of StoreCondReq hits
system.cpu.dcache.StoreCondReq_hits::total           38                       # number of StoreCondReq hits
system.cpu.dcache.StoreCondReq_accesses::.cpu.data           38                       # number of StoreCondReq accesses(hits+misses)
system.cpu.dcache.StoreCondReq_accesses::total           38                       # number of StoreCondReq accesses(hits+misses)
system.cpu.dcache.tags.pwrStateResidencyTicks::UNDEFINED  88157095500                       # Cumulative time (in ticks) in various power states
system.cpu.dcache.tags.tagsinuse          1008.814761                       # Cycle average of tags in use
system.cpu.dcache.tags.total_refs            52027559                       # Total number of references to valid blocks.
system.cpu.dcache.tags.sampled_refs            711698                       # Sample count of references to valid blocks.
system.cpu.dcache.tags.avg_refs             73.103422                       # Average number of references to valid blocks.
system.cpu.dcache.tags.warmup_cycle            176500                       # Cycle when the warmup percentage was hit.
system.cpu.dcache.tags.occ_blocks::.cpu.data  1008.814761                       # Average occupied blocks per requestor
system.cpu.dcache.tags.occ_percent::.cpu.data     0.985171                       # Average percentage of cache occupancy
system.cpu.dcache.tags.occ_percent::total     0.985171                       # Average percentage of cache occupancy
system.cpu.dcache.tags.occ_task_id_blocks::1024         1024                       # Occupied blocks per task id
system.cpu.dcache.tags.age_task_id_blocks_1024::0          164                       # Occupied blocks per task id
system.cpu.dcache.tags.age_task_id_blocks_1024::1          359                       # Occupied blocks per task id
system.cpu.dcache.tags.age_task_id_blocks_1024::2          499                       # Occupied blocks per task id
system.cpu.dcache.tags.age_task_id_blocks_1024::3            1                       # Occupied blocks per task id
system.cpu.dcache.tags.age_task_id_blocks_1024::4            1                       # Occupied blocks per task id
system.cpu.dcache.tags.occ_task_id_percent::1024            1                       # Percentage of cache occupancy per task id
system.cpu.dcache.tags.tag_accesses         104884082                       # Number of tag accesses
system.cpu.dcache.tags.data_accesses        104884082                       # Number of data accesses
system.cpu.itb.walker.pwrStateResidencyTicks::UNDEFINED  88157095500                       # Cumulative time (in ticks) in various power states
system.cpu.itb.stage2_mmu.stage2_tlb.walker.pwrStateResidencyTicks::UNDEFINED  88157095500                       # Cumulative time (in ticks) in various power states

---------- End Simulation Statistics   ----------
