
---------- Begin Simulation Statistics ----------
final_tick                                82203056500                       # Number of ticks from beginning of simulation (restored from checkpoints and never reset)
host_inst_rate                                 305047                       # Simulator instruction rate (inst/s)
host_mem_usage                                 691764                       # Number of bytes of host memory used
host_op_rate                                   305646                       # Simulator op (including micro ops) rate (op/s)
host_seconds                                   327.82                       # Real time elapsed on the host
host_tick_rate                              250757771                       # Simulator tick rate (ticks/s)
sim_freq                                 1000000000000                       # Frequency of simulated ticks
sim_insts                                   100000001                       # Number of instructions simulated
sim_ops                                     100196363                       # Number of ops (including micro ops) simulated
sim_seconds                                  0.082203                       # Number of seconds simulated
sim_ticks                                 82203056500                       # Number of ticks simulated
system.cpu.branchPred.BTBCorrect                    0                       # Number of correct BTB predictions (this stat may not work properly.
system.cpu.branchPred.BTBHitPct             99.694594                       # BTB Hit Percentage
system.cpu.branchPred.BTBHits                 2095372                       # Number of BTB hits
system.cpu.branchPred.BTBLookups              2101791                       # Number of BTB lookups
system.cpu.branchPred.RASInCorrect                  5                       # Number of incorrect RAS predictions.
system.cpu.branchPred.condIncorrect             81341                       # Number of conditional branches incorrect
system.cpu.branchPred.condPredicted           3727533                       # Number of conditional branches predicted
system.cpu.branchPred.indirectHits                291                       # Number of indirect target hits.
system.cpu.branchPred.indirectLookups             808                       # Number of indirect predictor lookups.
system.cpu.branchPred.indirectMisses              517                       # Number of indirect misses.
system.cpu.branchPred.lookups                 4477604                       # Number of BP lookups
system.cpu.branchPred.usedRAS                   65338                       # Number of times the RAS was used to get a target.
system.cpu.branchPredindirectMispredicted          171                       # Number of mispredicted indirect branches.
system.cpu.committedInsts                   100000001                       # Number of instructions committed
system.cpu.committedOps                     100196363                       # Number of ops (including micro ops) committed
system.cpu.cpi                               1.644061                       # CPI: cycles per instruction
system.cpu.discardedOps                        190570                       # Number of ops (including micro ops) which were discarded before commit
system.cpu.dtb.accesses                             0                       # DTB accesses
system.cpu.dtb.align_faults                         0                       # Number of TLB faults due to alignment restrictions
system.cpu.dtb.domain_faults                        0                       # Number of TLB faults due to domain restrictions
system.cpu.dtb.flush_entries                        0                       # Number of entries that have been flushed from TLB
system.cpu.dtb.flush_tlb                            0                       # Number of times complete TLB was flushed
system.cpu.dtb.flush_tlb_asid                       0                       # Number of times TLB was flushed by ASID
system.cpu.dtb.flush_tlb_mva                        0                       # Number of times TLB was flushed by MVA
system.cpu.dtb.flush_tlb_mva_asid                   0                       # Number of times TLB was flushed by MVA & ASID
system.cpu.dtb.hits                                 0                       # DTB hits
system.cpu.dtb.inst_accesses                        0                       # ITB inst accesses
system.cpu.dtb.inst_hits                            0                       # ITB inst hits
system.cpu.dtb.inst_misses                          0                       # ITB inst misses
system.cpu.dtb.misses                               0                       # DTB misses
system.cpu.dtb.perms_faults                         0                       # Number of TLB faults due to permissions restrictions
system.cpu.dtb.prefetch_faults                      0                       # Number of TLB faults due to prefetch
system.cpu.dtb.read_accesses                        0                       # DTB read accesses
system.cpu.dtb.read_hits                            0                       # DTB read hits
system.cpu.dtb.read_misses                          0                       # DTB read misses
system.cpu.dtb.stage2_mmu.stage2_tlb.accesses            0                       # DTB accesses
system.cpu.dtb.stage2_mmu.stage2_tlb.align_faults            0                       # Number of TLB faults due to alignment restrictions
system.cpu.dtb.stage2_mmu.stage2_tlb.domain_faults            0                       # Number of TLB faults due to domain restrictions
system.cpu.dtb.stage2_mmu.stage2_tlb.flush_entries            0                       # Number of entries that have been flushed from TLB
system.cpu.dtb.stage2_mmu.stage2_tlb.flush_tlb            0                       # Number of times complete TLB was flushed
system.cpu.dtb.stage2_mmu.stage2_tlb.flush_tlb_asid            0                       # Number of times TLB was flushed by ASID
system.cpu.dtb.stage2_mmu.stage2_tlb.flush_tlb_mva            0                       # Number of times TLB was flushed by MVA
system.cpu.dtb.stage2_mmu.stage2_tlb.flush_tlb_mva_asid            0                       # Number of times TLB was flushed by MVA & ASID
system.cpu.dtb.stage2_mmu.stage2_tlb.hits            0                       # DTB hits
system.cpu.dtb.stage2_mmu.stage2_tlb.inst_accesses            0                       # ITB inst accesses
system.cpu.dtb.stage2_mmu.stage2_tlb.inst_hits            0                       # ITB inst hits
system.cpu.dtb.stage2_mmu.stage2_tlb.inst_misses            0                       # ITB inst misses
system.cpu.dtb.stage2_mmu.stage2_tlb.misses            0                       # DTB misses
system.cpu.dtb.stage2_mmu.stage2_tlb.perms_faults            0                       # Number of TLB faults due to permissions restrictions
system.cpu.dtb.stage2_mmu.stage2_tlb.prefetch_faults            0                       # Number of TLB faults due to prefetch
system.cpu.dtb.stage2_mmu.stage2_tlb.read_accesses            0                       # DTB read accesses
system.cpu.dtb.stage2_mmu.stage2_tlb.read_hits            0                       # DTB read hits
system.cpu.dtb.stage2_mmu.stage2_tlb.read_misses            0                       # DTB read misses
system.cpu.dtb.stage2_mmu.stage2_tlb.walker.walkRequestOrigin_Requested::Data            0                       # Table walker requests started/completed, data/inst
system.cpu.dtb.stage2_mmu.stage2_tlb.walker.walkRequestOrigin_Requested::Inst            0                       # Table walker requests started/completed, data/inst
system.cpu.dtb.stage2_mmu.stage2_tlb.walker.walkRequestOrigin_Requested::total            0                       # Table walker requests started/completed, data/inst
system.cpu.dtb.stage2_mmu.stage2_tlb.walker.walkRequestOrigin_Completed::Data            0                       # Table walker requests started/completed, data/inst
system.cpu.dtb.stage2_mmu.stage2_tlb.walker.walkRequestOrigin_Completed::Inst            0                       # Table walker requests started/completed, data/inst
system.cpu.dtb.stage2_mmu.stage2_tlb.walker.walkRequestOrigin_Completed::total            0                       # Table walker requests started/completed, data/inst
system.cpu.dtb.stage2_mmu.stage2_tlb.walker.walkRequestOrigin::total            0                       # Table walker requests started/completed, data/inst
system.cpu.dtb.stage2_mmu.stage2_tlb.walker.walks            0                       # Table walker walks requested
system.cpu.dtb.stage2_mmu.stage2_tlb.write_accesses            0                       # DTB write accesses
system.cpu.dtb.stage2_mmu.stage2_tlb.write_hits            0                       # DTB write hits
system.cpu.dtb.stage2_mmu.stage2_tlb.write_misses            0                       # DTB write misses
system.cpu.dtb.walker.walkRequestOrigin_Requested::Data            0                       # Table walker requests started/completed, data/inst
system.cpu.dtb.walker.walkRequestOrigin_Requested::Inst            0                       # Table walker requests started/completed, data/inst
system.cpu.dtb.walker.walkRequestOrigin_Requested::total            0                       # Table walker requests started/completed, data/inst
system.cpu.dtb.walker.walkRequestOrigin_Completed::Data            0                       # Table walker requests started/completed, data/inst
system.cpu.dtb.walker.walkRequestOrigin_Completed::Inst            0                       # Table walker requests started/completed, data/inst
system.cpu.dtb.walker.walkRequestOrigin_Completed::total            0                       # Table walker requests started/completed, data/inst
system.cpu.dtb.walker.walkRequestOrigin::total            0                       # Table walker requests started/completed, data/inst
system.cpu.dtb.walker.walks                         0                       # Table walker walks requested
system.cpu.dtb.write_accesses                       0                       # DTB write accesses
system.cpu.dtb.write_hits                           0                       # DTB write hits
system.cpu.dtb.write_misses                         0                       # DTB write misses
system.cpu.fetch2.amo_instructions                  0                       # Number of memory atomic instructions successfully decoded
system.cpu.fetch2.fp_instructions                   0                       # Number of floating point instructions successfully decoded
system.cpu.fetch2.int_instructions           42609955                       # Number of integer instructions successfully decoded
system.cpu.fetch2.load_instructions          43402166                       # Number of memory load instructions successfully decoded
system.cpu.fetch2.store_instructions         11001329                       # Number of memory store instructions successfully decoded
system.cpu.fetch2.vec_instructions                  0                       # Number of SIMD instructions successfully decoded
system.cpu.idleCycles                        31944658                       # Total number of cycles that the object has spent stopped
system.cpu.ipc                               0.608250                       # IPC: instructions per cycle
system.cpu.itb.accesses                             0                       # DTB accesses
system.cpu.itb.align_faults                         0                       # Number of TLB faults due to alignment restrictions
system.cpu.itb.domain_faults                        0                       # Number of TLB faults due to domain restrictions
system.cpu.itb.flush_entries                        0                       # Number of entries that have been flushed from TLB
system.cpu.itb.flush_tlb                            0                       # Number of times complete TLB was flushed
system.cpu.itb.flush_tlb_asid                       0                       # Number of times TLB was flushed by ASID
system.cpu.itb.flush_tlb_mva                        0                       # Number of times TLB was flushed by MVA
system.cpu.itb.flush_tlb_mva_asid                   0                       # Number of times TLB was flushed by MVA & ASID
system.cpu.itb.hits                                 0                       # DTB hits
system.cpu.itb.inst_accesses                        0                       # ITB inst accesses
system.cpu.itb.inst_hits                            0                       # ITB inst hits
system.cpu.itb.inst_misses                          0                       # ITB inst misses
system.cpu.itb.misses                               0                       # DTB misses
system.cpu.itb.perms_faults                         0                       # Number of TLB faults due to permissions restrictions
system.cpu.itb.prefetch_faults                      0                       # Number of TLB faults due to prefetch
system.cpu.itb.read_accesses                        0                       # DTB read accesses
system.cpu.itb.read_hits                            0                       # DTB read hits
system.cpu.itb.read_misses                          0                       # DTB read misses
system.cpu.itb.stage2_mmu.stage2_tlb.accesses            0                       # DTB accesses
system.cpu.itb.stage2_mmu.stage2_tlb.align_faults            0                       # Number of TLB faults due to alignment restrictions
system.cpu.itb.stage2_mmu.stage2_tlb.domain_faults            0                       # Number of TLB faults due to domain restrictions
system.cpu.itb.stage2_mmu.stage2_tlb.flush_entries            0                       # Number of entries that have been flushed from TLB
system.cpu.itb.stage2_mmu.stage2_tlb.flush_tlb            0                       # Number of times complete TLB was flushed
system.cpu.itb.stage2_mmu.stage2_tlb.flush_tlb_asid            0                       # Number of times TLB was flushed by ASID
system.cpu.itb.stage2_mmu.stage2_tlb.flush_tlb_mva            0                       # Number of times TLB was flushed by MVA
system.cpu.itb.stage2_mmu.stage2_tlb.flush_tlb_mva_asid            0                       # Number of times TLB was flushed by MVA & ASID
system.cpu.itb.stage2_mmu.stage2_tlb.hits            0                       # DTB hits
system.cpu.itb.stage2_mmu.stage2_tlb.inst_accesses            0                       # ITB inst accesses
system.cpu.itb.stage2_mmu.stage2_tlb.inst_hits            0                       # ITB inst hits
system.cpu.itb.stage2_mmu.stage2_tlb.inst_misses            0                       # ITB inst misses
system.cpu.itb.stage2_mmu.stage2_tlb.misses            0                       # DTB misses
system.cpu.itb.stage2_mmu.stage2_tlb.perms_faults            0                       # Number of TLB faults due to permissions restrictions
system.cpu.itb.stage2_mmu.stage2_tlb.prefetch_faults            0                       # Number of TLB faults due to prefetch
system.cpu.itb.stage2_mmu.stage2_tlb.read_accesses            0                       # DTB read accesses
system.cpu.itb.stage2_mmu.stage2_tlb.read_hits            0                       # DTB read hits
system.cpu.itb.stage2_mmu.stage2_tlb.read_misses            0                       # DTB read misses
system.cpu.itb.stage2_mmu.stage2_tlb.walker.walkRequestOrigin_Requested::Data            0                       # Table walker requests started/completed, data/inst
system.cpu.itb.stage2_mmu.stage2_tlb.walker.walkRequestOrigin_Requested::Inst            0                       # Table walker requests started/completed, data/inst
system.cpu.itb.stage2_mmu.stage2_tlb.walker.walkRequestOrigin_Requested::total            0                       # Table walker requests started/completed, data/inst
system.cpu.itb.stage2_mmu.stage2_tlb.walker.walkRequestOrigin_Completed::Data            0                       # Table walker requests started/completed, data/inst
system.cpu.itb.stage2_mmu.stage2_tlb.walker.walkRequestOrigin_Completed::Inst            0                       # Table walker requests started/completed, data/inst
system.cpu.itb.stage2_mmu.stage2_tlb.walker.walkRequestOrigin_Completed::total            0                       # Table walker requests started/completed, data/inst
system.cpu.itb.stage2_mmu.stage2_tlb.walker.walkRequestOrigin::total            0                       # Table walker requests started/completed, data/inst
system.cpu.itb.stage2_mmu.stage2_tlb.walker.walks            0                       # Table walker walks requested
system.cpu.itb.stage2_mmu.stage2_tlb.write_accesses            0                       # DTB write accesses
system.cpu.itb.stage2_mmu.stage2_tlb.write_hits            0                       # DTB write hits
system.cpu.itb.stage2_mmu.stage2_tlb.write_misses            0                       # DTB write misses
system.cpu.itb.walker.walkRequestOrigin_Requested::Data            0                       # Table walker requests started/completed, data/inst
system.cpu.itb.walker.walkRequestOrigin_Requested::Inst            0                       # Table walker requests started/completed, data/inst
system.cpu.itb.walker.walkRequestOrigin_Requested::total            0                       # Table walker requests started/completed, data/inst
system.cpu.itb.walker.walkRequestOrigin_Completed::Data            0                       # Table walker requests started/completed, data/inst
system.cpu.itb.walker.walkRequestOrigin_Completed::Inst            0                       # Table walker requests started/completed, data/inst
system.cpu.itb.walker.walkRequestOrigin_Completed::total            0                       # Table walker requests started/completed, data/inst
system.cpu.itb.walker.walkRequestOrigin::total            0                       # Table walker requests started/completed, data/inst
system.cpu.itb.walker.walks                         0                       # Table walker walks requested
system.cpu.itb.write_accesses                       0                       # DTB write accesses
system.cpu.itb.write_hits                           0                       # DTB write hits
system.cpu.itb.write_misses                         0                       # DTB write misses
system.cpu.numCycles                        164406113                       # number of cpu cycles simulated
system.cpu.numFetchSuspends                         0                       # Number of times Execute suspended instruction fetching
system.cpu.numWorkItemsCompleted                    0                       # number of work items this cpu completed
system.cpu.numWorkItemsStarted                      0                       # number of work items this cpu started
system.cpu.op_class_0::No_OpClass                   0      0.00%      0.00% # Class of committed instruction
system.cpu.op_class_0::IntAlu                46531400     46.44%     46.44% # Class of committed instruction
system.cpu.op_class_0::IntMult                  20720      0.02%     46.46% # Class of committed instruction
system.cpu.op_class_0::IntDiv                       0      0.00%     46.46% # Class of committed instruction
system.cpu.op_class_0::FloatAdd                     0      0.00%     46.46% # Class of committed instruction
system.cpu.op_class_0::FloatCmp                     0      0.00%     46.46% # Class of committed instruction
system.cpu.op_class_0::FloatCvt                     0      0.00%     46.46% # Class of committed instruction
system.cpu.op_class_0::FloatMult                    0      0.00%     46.46% # Class of committed instruction
system.cpu.op_class_0::FloatMultAcc                 0      0.00%     46.46% # Class of committed instruction
system.cpu.op_class_0::FloatDiv                     0      0.00%     46.46% # Class of committed instruction
system.cpu.op_class_0::FloatMisc                    0      0.00%     46.46% # Class of committed instruction
system.cpu.op_class_0::FloatSqrt                    0      0.00%     46.46% # Class of committed instruction
system.cpu.op_class_0::SimdAdd                      0      0.00%     46.46% # Class of committed instruction
system.cpu.op_class_0::SimdAddAcc                   0      0.00%     46.46% # Class of committed instruction
system.cpu.op_class_0::SimdAlu                      0      0.00%     46.46% # Class of committed instruction
system.cpu.op_class_0::SimdCmp                      0      0.00%     46.46% # Class of committed instruction
system.cpu.op_class_0::SimdCvt                      0      0.00%     46.46% # Class of committed instruction
system.cpu.op_class_0::SimdMisc                     0      0.00%     46.46% # Class of committed instruction
system.cpu.op_class_0::SimdMult                     0      0.00%     46.46% # Class of committed instruction
system.cpu.op_class_0::SimdMultAcc                  0      0.00%     46.46% # Class of committed instruction
system.cpu.op_class_0::SimdShift                    0      0.00%     46.46% # Class of committed instruction
system.cpu.op_class_0::SimdShiftAcc                 0      0.00%     46.46% # Class of committed instruction
system.cpu.op_class_0::SimdDiv                      0      0.00%     46.46% # Class of committed instruction
system.cpu.op_class_0::SimdSqrt                     0      0.00%     46.46% # Class of committed instruction
system.cpu.op_class_0::SimdFloatAdd                 0      0.00%     46.46% # Class of committed instruction
system.cpu.op_class_0::SimdFloatAlu                 0      0.00%     46.46% # Class of committed instruction
system.cpu.op_class_0::SimdFloatCmp                 0      0.00%     46.46% # Class of committed instruction
system.cpu.op_class_0::SimdFloatCvt                 0      0.00%     46.46% # Class of committed instruction
system.cpu.op_class_0::SimdFloatDiv                 0      0.00%     46.46% # Class of committed instruction
system.cpu.op_class_0::SimdFloatMisc               18      0.00%     46.46% # Class of committed instruction
system.cpu.op_class_0::SimdFloatMult                0      0.00%     46.46% # Class of committed instruction
system.cpu.op_class_0::SimdFloatMultAcc             0      0.00%     46.46% # Class of committed instruction
system.cpu.op_class_0::SimdFloatSqrt                0      0.00%     46.46% # Class of committed instruction
system.cpu.op_class_0::SimdReduceAdd                0      0.00%     46.46% # Class of committed instruction
system.cpu.op_class_0::SimdReduceAlu                0      0.00%     46.46% # Class of committed instruction
system.cpu.op_class_0::SimdReduceCmp                0      0.00%     46.46% # Class of committed instruction
system.cpu.op_class_0::SimdFloatReduceAdd            0      0.00%     46.46% # Class of committed instruction
system.cpu.op_class_0::SimdFloatReduceCmp            0      0.00%     46.46% # Class of committed instruction
system.cpu.op_class_0::SimdAes                      0      0.00%     46.46% # Class of committed instruction
system.cpu.op_class_0::SimdAesMix                   0      0.00%     46.46% # Class of committed instruction
system.cpu.op_class_0::SimdSha1Hash                 0      0.00%     46.46% # Class of committed instruction
system.cpu.op_class_0::SimdSha1Hash2                0      0.00%     46.46% # Class of committed instruction
system.cpu.op_class_0::SimdSha256Hash               0      0.00%     46.46% # Class of committed instruction
system.cpu.op_class_0::SimdSha256Hash2              0      0.00%     46.46% # Class of committed instruction
system.cpu.op_class_0::SimdShaSigma2                0      0.00%     46.46% # Class of committed instruction
system.cpu.op_class_0::SimdShaSigma3                0      0.00%     46.46% # Class of committed instruction
system.cpu.op_class_0::SimdPredAlu                  0      0.00%     46.46% # Class of committed instruction
system.cpu.op_class_0::MemRead               42693601     42.61%     89.07% # Class of committed instruction
system.cpu.op_class_0::MemWrite              10950624     10.93%    100.00% # Class of committed instruction
system.cpu.op_class_0::FloatMemRead                 0      0.00%    100.00% # Class of committed instruction
system.cpu.op_class_0::FloatMemWrite                0      0.00%    100.00% # Class of committed instruction
system.cpu.op_class_0::IprAccess                    0      0.00%    100.00% # Class of committed instruction
system.cpu.op_class_0::InstPrefetch                 0      0.00%    100.00% # Class of committed instruction
system.cpu.op_class_0::total                100196363                       # Class of committed instruction
system.cpu.tickCycles                       132461455                       # Number of cycles that the object actually ticked
system.cpu.workload.numSyscalls                    84                       # Number of system calls
system.membus.snoop_filter.hit_multi_requests            0                       # Number of requests hitting in the snoop filter with multiple (>1) holders of the requested data.
system.membus.snoop_filter.hit_multi_snoops            0                       # Number of snoops hitting in the snoop filter with multiple (>1) holders of the requested data.
system.membus.snoop_filter.hit_single_requests       168598                       # Number of requests hitting in the snoop filter with a single holder of the requested data.
system.membus.snoop_filter.hit_single_snoops            0                       # Number of snoops hitting in the snoop filter with a single holder of the requested data.
system.membus.snoop_filter.tot_requests        370299                       # Total number of requests made to the snoop filter.
system.membus.snoop_filter.tot_snoops               0                       # Total number of snoops made to the snoop filter.
system.tol2bus.snoop_filter.hit_multi_requests           64                       # Number of requests hitting in the snoop filter with multiple (>1) holders of the requested data.
system.tol2bus.snoop_filter.hit_multi_snoops            0                       # Number of snoops hitting in the snoop filter with multiple (>1) holders of the requested data.
system.tol2bus.snoop_filter.hit_single_requests       509621                       # Number of requests hitting in the snoop filter with a single holder of the requested data.
system.tol2bus.snoop_filter.hit_single_snoops          469                       # Number of snoops hitting in the snoop filter with a single holder of the requested data.
system.tol2bus.snoop_filter.tot_requests      1021732                       # Total number of requests made to the snoop filter.
system.tol2bus.snoop_filter.tot_snoops            469                       # Total number of snoops made to the snoop filter.
system.membus.pwrStateResidencyTicks::UNDEFINED  82203056500                       # Cumulative time (in ticks) in various power states
system.membus.trans_dist::ReadResp              65715                       # Transaction distribution
system.membus.trans_dist::WritebackDirty       111038                       # Transaction distribution
system.membus.trans_dist::CleanEvict            57553                       # Transaction distribution
system.membus.trans_dist::ReadExReq            135993                       # Transaction distribution
system.membus.trans_dist::ReadExResp           135992                       # Transaction distribution
system.membus.trans_dist::ReadSharedReq         65715                       # Transaction distribution
system.membus.pkt_count_system.l2.mem_side::system.mem_ctrls.port       572006                       # Packet count per connected master and slave (bytes)
system.membus.pkt_count::total                 572006                       # Packet count per connected master and slave (bytes)
system.membus.pkt_size_system.l2.mem_side::system.mem_ctrls.port     20015680                       # Cumulative packet size per connected master and slave (bytes)
system.membus.pkt_size::total                20015680                       # Cumulative packet size per connected master and slave (bytes)
system.membus.snoops                                0                       # Total snoops (count)
system.membus.snoopTraffic                          0                       # Total snoop traffic (bytes)
system.membus.snoop_fanout::samples            201708                       # Request fanout histogram
system.membus.snoop_fanout::mean                    0                       # Request fanout histogram
system.membus.snoop_fanout::stdev                   0                       # Request fanout histogram
system.membus.snoop_fanout::underflows              0      0.00%      0.00% # Request fanout histogram
system.membus.snoop_fanout::0                  201708    100.00%    100.00% # Request fanout histogram
system.membus.snoop_fanout::1                       0      0.00%    100.00% # Request fanout histogram
system.membus.snoop_fanout::overflows               0      0.00%    100.00% # Request fanout histogram
system.membus.snoop_fanout::min_value               0                       # Request fanout histogram
system.membus.snoop_fanout::max_value               0                       # Request fanout histogram
system.membus.snoop_fanout::total              201708                       # Request fanout histogram
system.membus.respLayer1.occupancy         1086676750                       # Layer occupancy (ticks)
system.membus.respLayer1.utilization              1.3                       # Layer utilization (%)
system.membus.reqLayer0.occupancy           856185000                       # Layer occupancy (ticks)
system.membus.reqLayer0.utilization               1.0                       # Layer utilization (%)
system.tol2bus.pwrStateResidencyTicks::UNDEFINED  82203056500                       # Cumulative time (in ticks) in various power states
system.tol2bus.trans_dist::ReadResp            279251                       # Transaction distribution
system.tol2bus.trans_dist::WritebackDirty       545829                       # Transaction distribution
system.tol2bus.trans_dist::WritebackClean          302                       # Transaction distribution
system.tol2bus.trans_dist::CleanEvict          132548                       # Transaction distribution
system.tol2bus.trans_dist::ReadExReq           232862                       # Transaction distribution
system.tol2bus.trans_dist::ReadExResp          232861                       # Transaction distribution
system.tol2bus.trans_dist::ReadCleanReq           747                       # Transaction distribution
system.tol2bus.trans_dist::ReadSharedReq       278504                       # Transaction distribution
system.tol2bus.pkt_count_system.cpu.icache.mem_side::system.l2.cpu_side         1796                       # Packet count per connected master and slave (bytes)
system.tol2bus.pkt_count_system.cpu.dcache.mem_side::system.l2.cpu_side      1532048                       # Packet count per connected master and slave (bytes)
system.tol2bus.pkt_count::total               1533844                       # Packet count per connected master and slave (bytes)
system.tol2bus.pkt_size_system.cpu.icache.mem_side::system.l2.cpu_side        67136                       # Cumulative packet size per connected master and slave (bytes)
system.tol2bus.pkt_size_system.cpu.dcache.mem_side::system.l2.cpu_side     60553984                       # Cumulative packet size per connected master and slave (bytes)
system.tol2bus.pkt_size::total               60621120                       # Cumulative packet size per connected master and slave (bytes)
system.tol2bus.snoops                          169060                       # Total snoops (count)
system.tol2bus.snoopTraffic                   7106432                       # Total snoop traffic (bytes)
system.tol2bus.snoop_fanout::samples           681173                       # Request fanout histogram
system.tol2bus.snoop_fanout::mean            0.000785                       # Request fanout histogram
system.tol2bus.snoop_fanout::stdev           0.028014                       # Request fanout histogram
system.tol2bus.snoop_fanout::underflows             0      0.00%      0.00% # Request fanout histogram
system.tol2bus.snoop_fanout::0                 680638     99.92%     99.92% # Request fanout histogram
system.tol2bus.snoop_fanout::1                    535      0.08%    100.00% # Request fanout histogram
system.tol2bus.snoop_fanout::2                      0      0.00%    100.00% # Request fanout histogram
system.tol2bus.snoop_fanout::overflows              0      0.00%    100.00% # Request fanout histogram
system.tol2bus.snoop_fanout::min_value              0                       # Request fanout histogram
system.tol2bus.snoop_fanout::max_value              1                       # Request fanout histogram
system.tol2bus.snoop_fanout::total             681173                       # Request fanout histogram
system.tol2bus.reqLayer0.occupancy          945959000                       # Layer occupancy (ticks)
system.tol2bus.reqLayer0.utilization              1.2                       # Layer utilization (%)
system.tol2bus.respLayer1.occupancy         767049496                       # Layer occupancy (ticks)
system.tol2bus.respLayer1.utilization             0.9                       # Layer utilization (%)
system.tol2bus.respLayer0.occupancy           1120500                       # Layer occupancy (ticks)
system.tol2bus.respLayer0.utilization             0.0                       # Layer utilization (%)
system.voltage_domain.voltage                       1                       # Voltage in Volts
system.clk_domain.clock                          1000                       # Clock period in ticks
system.l2.pwrStateResidencyTicks::UNDEFINED  82203056500                       # Cumulative time (in ticks) in various power states
system.l2.demand_hits::.cpu.inst                   79                       # number of demand (read+write) hits
system.l2.demand_hits::.cpu.data               310322                       # number of demand (read+write) hits
system.l2.demand_hits::total                   310401                       # number of demand (read+write) hits
system.l2.overall_hits::.cpu.inst                  79                       # number of overall hits
system.l2.overall_hits::.cpu.data              310322                       # number of overall hits
system.l2.overall_hits::total                  310401                       # number of overall hits
system.l2.demand_misses::.cpu.inst                668                       # number of demand (read+write) misses
system.l2.demand_misses::.cpu.data             201044                       # number of demand (read+write) misses
system.l2.demand_misses::total                 201712                       # number of demand (read+write) misses
system.l2.overall_misses::.cpu.inst               668                       # number of overall misses
system.l2.overall_misses::.cpu.data            201044                       # number of overall misses
system.l2.overall_misses::total                201712                       # number of overall misses
system.l2.demand_miss_latency::.cpu.inst     52018000                       # number of demand (read+write) miss cycles
system.l2.demand_miss_latency::.cpu.data  16992825000                       # number of demand (read+write) miss cycles
system.l2.demand_miss_latency::total      17044843000                       # number of demand (read+write) miss cycles
system.l2.overall_miss_latency::.cpu.inst     52018000                       # number of overall miss cycles
system.l2.overall_miss_latency::.cpu.data  16992825000                       # number of overall miss cycles
system.l2.overall_miss_latency::total     17044843000                       # number of overall miss cycles
system.l2.demand_accesses::.cpu.inst              747                       # number of demand (read+write) accesses
system.l2.demand_accesses::.cpu.data           511366                       # number of demand (read+write) accesses
system.l2.demand_accesses::total               512113                       # number of demand (read+write) accesses
system.l2.overall_accesses::.cpu.inst             747                       # number of overall (read+write) accesses
system.l2.overall_accesses::.cpu.data          511366                       # number of overall (read+write) accesses
system.l2.overall_accesses::total              512113                       # number of overall (read+write) accesses
system.l2.demand_miss_rate::.cpu.inst        0.894244                       # miss rate for demand accesses
system.l2.demand_miss_rate::.cpu.data        0.393151                       # miss rate for demand accesses
system.l2.demand_miss_rate::total            0.393882                       # miss rate for demand accesses
system.l2.overall_miss_rate::.cpu.inst       0.894244                       # miss rate for overall accesses
system.l2.overall_miss_rate::.cpu.data       0.393151                       # miss rate for overall accesses
system.l2.overall_miss_rate::total           0.393882                       # miss rate for overall accesses
system.l2.demand_avg_miss_latency::.cpu.inst 77871.257485                       # average overall miss latency
system.l2.demand_avg_miss_latency::.cpu.data 84522.915382                       # average overall miss latency
system.l2.demand_avg_miss_latency::total 84500.887404                       # average overall miss latency
system.l2.overall_avg_miss_latency::.cpu.inst 77871.257485                       # average overall miss latency
system.l2.overall_avg_miss_latency::.cpu.data 84522.915382                       # average overall miss latency
system.l2.overall_avg_miss_latency::total 84500.887404                       # average overall miss latency
system.l2.blocked_cycles::no_mshrs                  0                       # number of cycles access was blocked
system.l2.blocked_cycles::no_targets                0                       # number of cycles access was blocked
system.l2.blocked::no_mshrs                         0                       # number of cycles access was blocked
system.l2.blocked::no_targets                       0                       # number of cycles access was blocked
system.l2.avg_blocked_cycles::no_mshrs            nan                       # average number of cycles each access was blocked
system.l2.avg_blocked_cycles::no_targets          nan                       # average number of cycles each access was blocked
system.l2.writebacks::.writebacks              111038                       # number of writebacks
system.l2.writebacks::total                    111038                       # number of writebacks
system.l2.demand_mshr_hits::.cpu.data               4                       # number of demand (read+write) MSHR hits
system.l2.demand_mshr_hits::total                   4                       # number of demand (read+write) MSHR hits
system.l2.overall_mshr_hits::.cpu.data              4                       # number of overall MSHR hits
system.l2.overall_mshr_hits::total                  4                       # number of overall MSHR hits
system.l2.demand_mshr_misses::.cpu.inst           668                       # number of demand (read+write) MSHR misses
system.l2.demand_mshr_misses::.cpu.data        201040                       # number of demand (read+write) MSHR misses
system.l2.demand_mshr_misses::total            201708                       # number of demand (read+write) MSHR misses
system.l2.overall_mshr_misses::.cpu.inst          668                       # number of overall MSHR misses
system.l2.overall_mshr_misses::.cpu.data       201040                       # number of overall MSHR misses
system.l2.overall_mshr_misses::total           201708                       # number of overall MSHR misses
system.l2.demand_mshr_miss_latency::.cpu.inst     45338000                       # number of demand (read+write) MSHR miss cycles
system.l2.demand_mshr_miss_latency::.cpu.data  14982191000                       # number of demand (read+write) MSHR miss cycles
system.l2.demand_mshr_miss_latency::total  15027529000                       # number of demand (read+write) MSHR miss cycles
system.l2.overall_mshr_miss_latency::.cpu.inst     45338000                       # number of overall MSHR miss cycles
system.l2.overall_mshr_miss_latency::.cpu.data  14982191000                       # number of overall MSHR miss cycles
system.l2.overall_mshr_miss_latency::total  15027529000                       # number of overall MSHR miss cycles
system.l2.demand_mshr_miss_rate::.cpu.inst     0.894244                       # mshr miss rate for demand accesses
system.l2.demand_mshr_miss_rate::.cpu.data     0.393143                       # mshr miss rate for demand accesses
system.l2.demand_mshr_miss_rate::total       0.393874                       # mshr miss rate for demand accesses
system.l2.overall_mshr_miss_rate::.cpu.inst     0.894244                       # mshr miss rate for overall accesses
system.l2.overall_mshr_miss_rate::.cpu.data     0.393143                       # mshr miss rate for overall accesses
system.l2.overall_mshr_miss_rate::total      0.393874                       # mshr miss rate for overall accesses
system.l2.demand_avg_mshr_miss_latency::.cpu.inst 67871.257485                       # average overall mshr miss latency
system.l2.demand_avg_mshr_miss_latency::.cpu.data 74523.433148                       # average overall mshr miss latency
system.l2.demand_avg_mshr_miss_latency::total 74501.403018                       # average overall mshr miss latency
system.l2.overall_avg_mshr_miss_latency::.cpu.inst 67871.257485                       # average overall mshr miss latency
system.l2.overall_avg_mshr_miss_latency::.cpu.data 74523.433148                       # average overall mshr miss latency
system.l2.overall_avg_mshr_miss_latency::total 74501.403018                       # average overall mshr miss latency
system.l2.replacements                         169060                       # number of replacements
system.l2.WritebackDirty_hits::.writebacks       434791                       # number of WritebackDirty hits
system.l2.WritebackDirty_hits::total           434791                       # number of WritebackDirty hits
system.l2.WritebackDirty_accesses::.writebacks       434791                       # number of WritebackDirty accesses(hits+misses)
system.l2.WritebackDirty_accesses::total       434791                       # number of WritebackDirty accesses(hits+misses)
system.l2.WritebackClean_hits::.writebacks          293                       # number of WritebackClean hits
system.l2.WritebackClean_hits::total              293                       # number of WritebackClean hits
system.l2.WritebackClean_accesses::.writebacks          293                       # number of WritebackClean accesses(hits+misses)
system.l2.WritebackClean_accesses::total          293                       # number of WritebackClean accesses(hits+misses)
system.l2.ReadExReq_hits::.cpu.data             96869                       # number of ReadExReq hits
system.l2.ReadExReq_hits::total                 96869                       # number of ReadExReq hits
system.l2.ReadExReq_misses::.cpu.data          135993                       # number of ReadExReq misses
system.l2.ReadExReq_misses::total              135993                       # number of ReadExReq misses
system.l2.ReadExReq_miss_latency::.cpu.data  11795092000                       # number of ReadExReq miss cycles
system.l2.ReadExReq_miss_latency::total   11795092000                       # number of ReadExReq miss cycles
system.l2.ReadExReq_accesses::.cpu.data        232862                       # number of ReadExReq accesses(hits+misses)
system.l2.ReadExReq_accesses::total            232862                       # number of ReadExReq accesses(hits+misses)
system.l2.ReadExReq_miss_rate::.cpu.data     0.584007                       # miss rate for ReadExReq accesses
system.l2.ReadExReq_miss_rate::total         0.584007                       # miss rate for ReadExReq accesses
system.l2.ReadExReq_avg_miss_latency::.cpu.data 86733.081850                       # average ReadExReq miss latency
system.l2.ReadExReq_avg_miss_latency::total 86733.081850                       # average ReadExReq miss latency
system.l2.ReadExReq_mshr_misses::.cpu.data       135993                       # number of ReadExReq MSHR misses
system.l2.ReadExReq_mshr_misses::total         135993                       # number of ReadExReq MSHR misses
system.l2.ReadExReq_mshr_miss_latency::.cpu.data  10435172000                       # number of ReadExReq MSHR miss cycles
system.l2.ReadExReq_mshr_miss_latency::total  10435172000                       # number of ReadExReq MSHR miss cycles
system.l2.ReadExReq_mshr_miss_rate::.cpu.data     0.584007                       # mshr miss rate for ReadExReq accesses
system.l2.ReadExReq_mshr_miss_rate::total     0.584007                       # mshr miss rate for ReadExReq accesses
system.l2.ReadExReq_avg_mshr_miss_latency::.cpu.data 76733.155383                       # average ReadExReq mshr miss latency
system.l2.ReadExReq_avg_mshr_miss_latency::total 76733.155383                       # average ReadExReq mshr miss latency
system.l2.ReadCleanReq_hits::.cpu.inst             79                       # number of ReadCleanReq hits
system.l2.ReadCleanReq_hits::total                 79                       # number of ReadCleanReq hits
system.l2.ReadCleanReq_misses::.cpu.inst          668                       # number of ReadCleanReq misses
system.l2.ReadCleanReq_misses::total              668                       # number of ReadCleanReq misses
system.l2.ReadCleanReq_miss_latency::.cpu.inst     52018000                       # number of ReadCleanReq miss cycles
system.l2.ReadCleanReq_miss_latency::total     52018000                       # number of ReadCleanReq miss cycles
system.l2.ReadCleanReq_accesses::.cpu.inst          747                       # number of ReadCleanReq accesses(hits+misses)
system.l2.ReadCleanReq_accesses::total            747                       # number of ReadCleanReq accesses(hits+misses)
system.l2.ReadCleanReq_miss_rate::.cpu.inst     0.894244                       # miss rate for ReadCleanReq accesses
system.l2.ReadCleanReq_miss_rate::total      0.894244                       # miss rate for ReadCleanReq accesses
system.l2.ReadCleanReq_avg_miss_latency::.cpu.inst 77871.257485                       # average ReadCleanReq miss latency
system.l2.ReadCleanReq_avg_miss_latency::total 77871.257485                       # average ReadCleanReq miss latency
system.l2.ReadCleanReq_mshr_misses::.cpu.inst          668                       # number of ReadCleanReq MSHR misses
system.l2.ReadCleanReq_mshr_misses::total          668                       # number of ReadCleanReq MSHR misses
system.l2.ReadCleanReq_mshr_miss_latency::.cpu.inst     45338000                       # number of ReadCleanReq MSHR miss cycles
system.l2.ReadCleanReq_mshr_miss_latency::total     45338000                       # number of ReadCleanReq MSHR miss cycles
system.l2.ReadCleanReq_mshr_miss_rate::.cpu.inst     0.894244                       # mshr miss rate for ReadCleanReq accesses
system.l2.ReadCleanReq_mshr_miss_rate::total     0.894244                       # mshr miss rate for ReadCleanReq accesses
system.l2.ReadCleanReq_avg_mshr_miss_latency::.cpu.inst 67871.257485                       # average ReadCleanReq mshr miss latency
system.l2.ReadCleanReq_avg_mshr_miss_latency::total 67871.257485                       # average ReadCleanReq mshr miss latency
system.l2.ReadSharedReq_hits::.cpu.data        213453                       # number of ReadSharedReq hits
system.l2.ReadSharedReq_hits::total            213453                       # number of ReadSharedReq hits
system.l2.ReadSharedReq_misses::.cpu.data        65051                       # number of ReadSharedReq misses
system.l2.ReadSharedReq_misses::total           65051                       # number of ReadSharedReq misses
system.l2.ReadSharedReq_miss_latency::.cpu.data   5197733000                       # number of ReadSharedReq miss cycles
system.l2.ReadSharedReq_miss_latency::total   5197733000                       # number of ReadSharedReq miss cycles
system.l2.ReadSharedReq_accesses::.cpu.data       278504                       # number of ReadSharedReq accesses(hits+misses)
system.l2.ReadSharedReq_accesses::total        278504                       # number of ReadSharedReq accesses(hits+misses)
system.l2.ReadSharedReq_miss_rate::.cpu.data     0.233573                       # miss rate for ReadSharedReq accesses
system.l2.ReadSharedReq_miss_rate::total     0.233573                       # miss rate for ReadSharedReq accesses
system.l2.ReadSharedReq_avg_miss_latency::.cpu.data 79902.430401                       # average ReadSharedReq miss latency
system.l2.ReadSharedReq_avg_miss_latency::total 79902.430401                       # average ReadSharedReq miss latency
system.l2.ReadSharedReq_mshr_hits::.cpu.data            4                       # number of ReadSharedReq MSHR hits
system.l2.ReadSharedReq_mshr_hits::total            4                       # number of ReadSharedReq MSHR hits
system.l2.ReadSharedReq_mshr_misses::.cpu.data        65047                       # number of ReadSharedReq MSHR misses
system.l2.ReadSharedReq_mshr_misses::total        65047                       # number of ReadSharedReq MSHR misses
system.l2.ReadSharedReq_mshr_miss_latency::.cpu.data   4547019000                       # number of ReadSharedReq MSHR miss cycles
system.l2.ReadSharedReq_mshr_miss_latency::total   4547019000                       # number of ReadSharedReq MSHR miss cycles
system.l2.ReadSharedReq_mshr_miss_rate::.cpu.data     0.233559                       # mshr miss rate for ReadSharedReq accesses
system.l2.ReadSharedReq_mshr_miss_rate::total     0.233559                       # mshr miss rate for ReadSharedReq accesses
system.l2.ReadSharedReq_avg_mshr_miss_latency::.cpu.data 69903.592787                       # average ReadSharedReq mshr miss latency
system.l2.ReadSharedReq_avg_mshr_miss_latency::total 69903.592787                       # average ReadSharedReq mshr miss latency
system.l2.tags.pwrStateResidencyTicks::UNDEFINED  82203056500                       # Cumulative time (in ticks) in various power states
system.l2.tags.tagsinuse                 31886.354520                       # Cycle average of tags in use
system.l2.tags.total_refs                     1021663                       # Total number of references to valid blocks.
system.l2.tags.sampled_refs                    201828                       # Sample count of references to valid blocks.
system.l2.tags.avg_refs                      5.062048                       # Average number of references to valid blocks.
system.l2.tags.warmup_cycle                     77000                       # Cycle when the warmup percentage was hit.
system.l2.tags.occ_blocks::.writebacks      42.795581                       # Average occupied blocks per requestor
system.l2.tags.occ_blocks::.cpu.inst        84.395661                       # Average occupied blocks per requestor
system.l2.tags.occ_blocks::.cpu.data     31759.163277                       # Average occupied blocks per requestor
system.l2.tags.occ_percent::.writebacks      0.001306                       # Average percentage of cache occupancy
system.l2.tags.occ_percent::.cpu.inst        0.002576                       # Average percentage of cache occupancy
system.l2.tags.occ_percent::.cpu.data        0.969213                       # Average percentage of cache occupancy
system.l2.tags.occ_percent::total            0.973094                       # Average percentage of cache occupancy
system.l2.tags.occ_task_id_blocks::1024         32768                       # Occupied blocks per task id
system.l2.tags.age_task_id_blocks_1024::0           87                       # Occupied blocks per task id
system.l2.tags.age_task_id_blocks_1024::1          118                       # Occupied blocks per task id
system.l2.tags.age_task_id_blocks_1024::2         1177                       # Occupied blocks per task id
system.l2.tags.age_task_id_blocks_1024::3        16513                       # Occupied blocks per task id
system.l2.tags.age_task_id_blocks_1024::4        14873                       # Occupied blocks per task id
system.l2.tags.occ_task_id_percent::1024            1                       # Percentage of cache occupancy per task id
system.l2.tags.tag_accesses                  16548516                       # Number of tag accesses
system.l2.tags.data_accesses                 16548516                       # Number of data accesses
system.cpu_voltage_domain.voltage                   1                       # Voltage in Volts
system.mem_ctrls.pwrStateResidencyTicks::UNDEFINED  82203056500                       # Cumulative time (in ticks) in various power states
system.mem_ctrls.bytes_read::.cpu.inst          42752                       # Number of bytes read from this memory
system.mem_ctrls.bytes_read::.cpu.data       12866560                       # Number of bytes read from this memory
system.mem_ctrls.bytes_read::total           12909312                       # Number of bytes read from this memory
system.mem_ctrls.bytes_inst_read::.cpu.inst        42752                       # Number of instructions bytes read from this memory
system.mem_ctrls.bytes_inst_read::total         42752                       # Number of instructions bytes read from this memory
system.mem_ctrls.bytes_written::.writebacks      7106432                       # Number of bytes written to this memory
system.mem_ctrls.bytes_written::total         7106432                       # Number of bytes written to this memory
system.mem_ctrls.num_reads::.cpu.inst             668                       # Number of read requests responded to by this memory
system.mem_ctrls.num_reads::.cpu.data          201040                       # Number of read requests responded to by this memory
system.mem_ctrls.num_reads::total              201708                       # Number of read requests responded to by this memory
system.mem_ctrls.num_writes::.writebacks       111038                       # Number of write requests responded to by this memory
system.mem_ctrls.num_writes::total             111038                       # Number of write requests responded to by this memory
system.mem_ctrls.bw_read::.cpu.inst            520078                       # Total read bandwidth from this memory (bytes/s)
system.mem_ctrls.bw_read::.cpu.data         156521674                       # Total read bandwidth from this memory (bytes/s)
system.mem_ctrls.bw_read::total             157041752                       # Total read bandwidth from this memory (bytes/s)
system.mem_ctrls.bw_inst_read::.cpu.inst       520078                       # Instruction read bandwidth from this memory (bytes/s)
system.mem_ctrls.bw_inst_read::total           520078                       # Instruction read bandwidth from this memory (bytes/s)
system.mem_ctrls.bw_write::.writebacks       86449730                       # Write bandwidth from this memory (bytes/s)
system.mem_ctrls.bw_write::total             86449730                       # Write bandwidth from this memory (bytes/s)
system.mem_ctrls.bw_total::.writebacks       86449730                       # Total bandwidth to/from this memory (bytes/s)
system.mem_ctrls.bw_total::.cpu.inst           520078                       # Total bandwidth to/from this memory (bytes/s)
system.mem_ctrls.bw_total::.cpu.data        156521674                       # Total bandwidth to/from this memory (bytes/s)
system.mem_ctrls.bw_total::total            243491481                       # Total bandwidth to/from this memory (bytes/s)
system.mem_ctrls.avgPriority_.writebacks::samples    111038.00                       # Average QoS priority value for accepted requests
system.mem_ctrls.avgPriority_.cpu.inst::samples       668.00                       # Average QoS priority value for accepted requests
system.mem_ctrls.avgPriority_.cpu.data::samples    201024.00                       # Average QoS priority value for accepted requests
system.mem_ctrls.priorityMinLatency      0.000000018750                       # per QoS priority minimum request to response latency (s)
system.mem_ctrls.priorityMaxLatency      0.005486824250                       # per QoS priority maximum request to response latency (s)
system.mem_ctrls.numReadWriteTurnArounds         6642                       # Number of turnarounds from READ to WRITE
system.mem_ctrls.numWriteReadTurnArounds         6642                       # Number of turnarounds from WRITE to READ
system.mem_ctrls.numStayReadState              525385                       # Number of times bus staying in READ state
system.mem_ctrls.numStayWriteState             104521                       # Number of times bus staying in WRITE state
system.mem_ctrls.readReqs                      201708                       # Number of read requests accepted
system.mem_ctrls.writeReqs                     111038                       # Number of write requests accepted
system.mem_ctrls.readBursts                    201708                       # Number of DRAM read bursts, including those serviced by the write queue
system.mem_ctrls.writeBursts                   111038                       # Number of DRAM write bursts, including those merged in the write queue
system.mem_ctrls.servicedByWrQ                     16                       # Number of DRAM read bursts serviced by the write queue
system.mem_ctrls.mergedWrBursts                     0                       # Number of DRAM write bursts merged with an existing one
system.mem_ctrls.neitherReadNorWriteReqs            0                       # Number of requests that are neither read nor write
system.mem_ctrls.perBankRdBursts::0             13013                       # Per bank write bursts
system.mem_ctrls.perBankRdBursts::1             12897                       # Per bank write bursts
system.mem_ctrls.perBankRdBursts::2             12959                       # Per bank write bursts
system.mem_ctrls.perBankRdBursts::3             12667                       # Per bank write bursts
system.mem_ctrls.perBankRdBursts::4             12553                       # Per bank write bursts
system.mem_ctrls.perBankRdBursts::5             12386                       # Per bank write bursts
system.mem_ctrls.perBankRdBursts::6             12334                       # Per bank write bursts
system.mem_ctrls.perBankRdBursts::7             12473                       # Per bank write bursts
system.mem_ctrls.perBankRdBursts::8             12455                       # Per bank write bursts
system.mem_ctrls.perBankRdBursts::9             12398                       # Per bank write bursts
system.mem_ctrls.perBankRdBursts::10            12435                       # Per bank write bursts
system.mem_ctrls.perBankRdBursts::11            12427                       # Per bank write bursts
system.mem_ctrls.perBankRdBursts::12            12631                       # Per bank write bursts
system.mem_ctrls.perBankRdBursts::13            12683                       # Per bank write bursts
system.mem_ctrls.perBankRdBursts::14            12687                       # Per bank write bursts
system.mem_ctrls.perBankRdBursts::15            12694                       # Per bank write bursts
system.mem_ctrls.perBankWrBursts::0              7138                       # Per bank write bursts
system.mem_ctrls.perBankWrBursts::1              7127                       # Per bank write bursts
system.mem_ctrls.perBankWrBursts::2              7165                       # Per bank write bursts
system.mem_ctrls.perBankWrBursts::3              6975                       # Per bank write bursts
system.mem_ctrls.perBankWrBursts::4              6974                       # Per bank write bursts
system.mem_ctrls.perBankWrBursts::5              6939                       # Per bank write bursts
system.mem_ctrls.perBankWrBursts::6              6835                       # Per bank write bursts
system.mem_ctrls.perBankWrBursts::7              6808                       # Per bank write bursts
system.mem_ctrls.perBankWrBursts::8              6802                       # Per bank write bursts
system.mem_ctrls.perBankWrBursts::9              6776                       # Per bank write bursts
system.mem_ctrls.perBankWrBursts::10             6854                       # Per bank write bursts
system.mem_ctrls.perBankWrBursts::11             6808                       # Per bank write bursts
system.mem_ctrls.perBankWrBursts::12             6880                       # Per bank write bursts
system.mem_ctrls.perBankWrBursts::13             6966                       # Per bank write bursts
system.mem_ctrls.perBankWrBursts::14             7014                       # Per bank write bursts
system.mem_ctrls.perBankWrBursts::15             6958                       # Per bank write bursts
system.mem_ctrls.avgRdQLen                       1.09                       # Average read queue length when enqueuing
system.mem_ctrls.avgWrQLen                      24.44                       # Average write queue length when enqueuing
system.mem_ctrls.totQLat                   2923523750                       # Total ticks spent queuing
system.mem_ctrls.totBusLat                 1008460000                       # Total ticks spent in databus transfers
system.mem_ctrls.totMemAccLat              6705248750                       # Total ticks spent from burst creation until serviced by the DRAM
system.mem_ctrls.avgQLat                     14494.99                       # Average queueing delay per DRAM burst
system.mem_ctrls.avgBusLat                    5000.00                       # Average bus latency per DRAM burst
system.mem_ctrls.avgMemAccLat                33244.99                       # Average memory access latency per DRAM burst
system.mem_ctrls.numRdRetry                         0                       # Number of times read queue was full causing retry
system.mem_ctrls.numWrRetry                         0                       # Number of times write queue was full causing retry
system.mem_ctrls.readRowHits                   138485                       # Number of row buffer hits during reads
system.mem_ctrls.writeRowHits                   70055                       # Number of row buffer hits during writes
system.mem_ctrls.readRowHitRate                 68.66                       # Row buffer hit rate for reads
system.mem_ctrls.writeRowHitRate                63.09                       # Row buffer hit rate for writes
system.mem_ctrls.readPktSize::0                     0                       # Read request sizes (log2)
system.mem_ctrls.readPktSize::1                     0                       # Read request sizes (log2)
system.mem_ctrls.readPktSize::2                     0                       # Read request sizes (log2)
system.mem_ctrls.readPktSize::3                     0                       # Read request sizes (log2)
system.mem_ctrls.readPktSize::4                     0                       # Read request sizes (log2)
system.mem_ctrls.readPktSize::5                     0                       # Read request sizes (log2)
system.mem_ctrls.readPktSize::6                201708                       # Read request sizes (log2)
system.mem_ctrls.writePktSize::0                    0                       # Write request sizes (log2)
system.mem_ctrls.writePktSize::1                    0                       # Write request sizes (log2)
system.mem_ctrls.writePktSize::2                    0                       # Write request sizes (log2)
system.mem_ctrls.writePktSize::3                    0                       # Write request sizes (log2)
system.mem_ctrls.writePktSize::4                    0                       # Write request sizes (log2)
system.mem_ctrls.writePktSize::5                    0                       # Write request sizes (log2)
system.mem_ctrls.writePktSize::6               111038                       # Write request sizes (log2)
system.mem_ctrls.rdQLenPdf::0                  140902                       # What read queue length does an incoming req see
system.mem_ctrls.rdQLenPdf::1                   58250                       # What read queue length does an incoming req see
system.mem_ctrls.rdQLenPdf::2                    2274                       # What read queue length does an incoming req see
system.mem_ctrls.rdQLenPdf::3                     265                       # What read queue length does an incoming req see
system.mem_ctrls.rdQLenPdf::4                       1                       # What read queue length does an incoming req see
system.mem_ctrls.rdQLenPdf::5                       0                       # What read queue length does an incoming req see
system.mem_ctrls.rdQLenPdf::6                       0                       # What read queue length does an incoming req see
system.mem_ctrls.rdQLenPdf::7                       0                       # What read queue length does an incoming req see
system.mem_ctrls.rdQLenPdf::8                       0                       # What read queue length does an incoming req see
system.mem_ctrls.rdQLenPdf::9                       0                       # What read queue length does an incoming req see
system.mem_ctrls.rdQLenPdf::10                      0                       # What read queue length does an incoming req see
system.mem_ctrls.rdQLenPdf::11                      0                       # What read queue length does an incoming req see
system.mem_ctrls.rdQLenPdf::12                      0                       # What read queue length does an incoming req see
system.mem_ctrls.rdQLenPdf::13                      0                       # What read queue length does an incoming req see
system.mem_ctrls.rdQLenPdf::14                      0                       # What read queue length does an incoming req see
system.mem_ctrls.rdQLenPdf::15                      0                       # What read queue length does an incoming req see
system.mem_ctrls.rdQLenPdf::16                      0                       # What read queue length does an incoming req see
system.mem_ctrls.rdQLenPdf::17                      0                       # What read queue length does an incoming req see
system.mem_ctrls.rdQLenPdf::18                      0                       # What read queue length does an incoming req see
system.mem_ctrls.rdQLenPdf::19                      0                       # What read queue length does an incoming req see
system.mem_ctrls.rdQLenPdf::20                      0                       # What read queue length does an incoming req see
system.mem_ctrls.rdQLenPdf::21                      0                       # What read queue length does an incoming req see
system.mem_ctrls.rdQLenPdf::22                      0                       # What read queue length does an incoming req see
system.mem_ctrls.rdQLenPdf::23                      0                       # What read queue length does an incoming req see
system.mem_ctrls.rdQLenPdf::24                      0                       # What read queue length does an incoming req see
system.mem_ctrls.rdQLenPdf::25                      0                       # What read queue length does an incoming req see
system.mem_ctrls.rdQLenPdf::26                      0                       # What read queue length does an incoming req see
system.mem_ctrls.rdQLenPdf::27                      0                       # What read queue length does an incoming req see
system.mem_ctrls.rdQLenPdf::28                      0                       # What read queue length does an incoming req see
system.mem_ctrls.rdQLenPdf::29                      0                       # What read queue length does an incoming req see
system.mem_ctrls.rdQLenPdf::30                      0                       # What read queue length does an incoming req see
system.mem_ctrls.rdQLenPdf::31                      0                       # What read queue length does an incoming req see
system.mem_ctrls.wrQLenPdf::0                       1                       # What write queue length does an incoming req see
system.mem_ctrls.wrQLenPdf::1                       1                       # What write queue length does an incoming req see
system.mem_ctrls.wrQLenPdf::2                       1                       # What write queue length does an incoming req see
system.mem_ctrls.wrQLenPdf::3                       1                       # What write queue length does an incoming req see
system.mem_ctrls.wrQLenPdf::4                       1                       # What write queue length does an incoming req see
system.mem_ctrls.wrQLenPdf::5                       1                       # What write queue length does an incoming req see
system.mem_ctrls.wrQLenPdf::6                       1                       # What write queue length does an incoming req see
system.mem_ctrls.wrQLenPdf::7                       1                       # What write queue length does an incoming req see
system.mem_ctrls.wrQLenPdf::8                       1                       # What write queue length does an incoming req see
system.mem_ctrls.wrQLenPdf::9                       1                       # What write queue length does an incoming req see
system.mem_ctrls.wrQLenPdf::10                      1                       # What write queue length does an incoming req see
system.mem_ctrls.wrQLenPdf::11                      1                       # What write queue length does an incoming req see
system.mem_ctrls.wrQLenPdf::12                      1                       # What write queue length does an incoming req see
system.mem_ctrls.wrQLenPdf::13                      1                       # What write queue length does an incoming req see
system.mem_ctrls.wrQLenPdf::14                      1                       # What write queue length does an incoming req see
system.mem_ctrls.wrQLenPdf::15                   2239                       # What write queue length does an incoming req see
system.mem_ctrls.wrQLenPdf::16                   2266                       # What write queue length does an incoming req see
system.mem_ctrls.wrQLenPdf::17                   5769                       # What write queue length does an incoming req see
system.mem_ctrls.wrQLenPdf::18                   6706                       # What write queue length does an incoming req see
system.mem_ctrls.wrQLenPdf::19                   6689                       # What write queue length does an incoming req see
system.mem_ctrls.wrQLenPdf::20                   6850                       # What write queue length does an incoming req see
system.mem_ctrls.wrQLenPdf::21                   6709                       # What write queue length does an incoming req see
system.mem_ctrls.wrQLenPdf::22                   6711                       # What write queue length does an incoming req see
system.mem_ctrls.wrQLenPdf::23                   6713                       # What write queue length does an incoming req see
system.mem_ctrls.wrQLenPdf::24                   6747                       # What write queue length does an incoming req see
system.mem_ctrls.wrQLenPdf::25                   6766                       # What write queue length does an incoming req see
system.mem_ctrls.wrQLenPdf::26                   6714                       # What write queue length does an incoming req see
system.mem_ctrls.wrQLenPdf::27                   6680                       # What write queue length does an incoming req see
system.mem_ctrls.wrQLenPdf::28                   6800                       # What write queue length does an incoming req see
system.mem_ctrls.wrQLenPdf::29                   6707                       # What write queue length does an incoming req see
system.mem_ctrls.wrQLenPdf::30                   6657                       # What write queue length does an incoming req see
system.mem_ctrls.wrQLenPdf::31                   6652                       # What write queue length does an incoming req see
system.mem_ctrls.wrQLenPdf::32                   6645                       # What write queue length does an incoming req see
system.mem_ctrls.wrQLenPdf::33                      3                       # What write queue length does an incoming req see
system.mem_ctrls.wrQLenPdf::34                      0                       # What write queue length does an incoming req see
system.mem_ctrls.wrQLenPdf::35                      0                       # What write queue length does an incoming req see
system.mem_ctrls.wrQLenPdf::36                      0                       # What write queue length does an incoming req see
system.mem_ctrls.wrQLenPdf::37                      0                       # What write queue length does an incoming req see
system.mem_ctrls.wrQLenPdf::38                      0                       # What write queue length does an incoming req see
system.mem_ctrls.wrQLenPdf::39                      0                       # What write queue length does an incoming req see
system.mem_ctrls.wrQLenPdf::40                      0                       # What write queue length does an incoming req see
system.mem_ctrls.wrQLenPdf::41                      0                       # What write queue length does an incoming req see
system.mem_ctrls.wrQLenPdf::42                      0                       # What write queue length does an incoming req see
system.mem_ctrls.wrQLenPdf::43                      0                       # What write queue length does an incoming req see
system.mem_ctrls.wrQLenPdf::44                      0                       # What write queue length does an incoming req see
system.mem_ctrls.wrQLenPdf::45                      0                       # What write queue length does an incoming req see
system.mem_ctrls.wrQLenPdf::46                      0                       # What write queue length does an incoming req see
system.mem_ctrls.wrQLenPdf::47                      0                       # What write queue length does an incoming req see
system.mem_ctrls.wrQLenPdf::48                      0                       # What write queue length does an incoming req see
system.mem_ctrls.wrQLenPdf::49                      0                       # What write queue length does an incoming req see
system.mem_ctrls.wrQLenPdf::50                      0                       # What write queue length does an incoming req see
system.mem_ctrls.wrQLenPdf::51                      0                       # What write queue length does an incoming req see
system.mem_ctrls.wrQLenPdf::52                      0                       # What write queue length does an incoming req see
system.mem_ctrls.wrQLenPdf::53                      0                       # What write queue length does an incoming req see
system.mem_ctrls.wrQLenPdf::54                      0                       # What write queue length does an incoming req see
system.mem_ctrls.wrQLenPdf::55                      0                       # What write queue length does an incoming req see
system.mem_ctrls.wrQLenPdf::56                      0                       # What write queue length does an incoming req see
system.mem_ctrls.wrQLenPdf::57                      0                       # What write queue length does an incoming req see
system.mem_ctrls.wrQLenPdf::58                      0                       # What write queue length does an incoming req see
system.mem_ctrls.wrQLenPdf::59                      0                       # What write queue length does an incoming req see
system.mem_ctrls.wrQLenPdf::60                      0                       # What write queue length does an incoming req see
system.mem_ctrls.wrQLenPdf::61                      0                       # What write queue length does an incoming req see
system.mem_ctrls.wrQLenPdf::62                      0                       # What write queue length does an incoming req see
system.mem_ctrls.wrQLenPdf::63                      0                       # What write queue length does an incoming req see
system.mem_ctrls.bytesPerActivate::samples       104163                       # Bytes accessed per row activation
system.mem_ctrls.bytesPerActivate::mean    192.131486                       # Bytes accessed per row activation
system.mem_ctrls.bytesPerActivate::gmean   112.433569                       # Bytes accessed per row activation
system.mem_ctrls.bytesPerActivate::stdev   255.297788                       # Bytes accessed per row activation
system.mem_ctrls.bytesPerActivate::0-127        68173     65.45%     65.45% # Bytes accessed per row activation
system.mem_ctrls.bytesPerActivate::128-255        14526     13.95%     79.39% # Bytes accessed per row activation
system.mem_ctrls.bytesPerActivate::256-383         2854      2.74%     82.13% # Bytes accessed per row activation
system.mem_ctrls.bytesPerActivate::384-511         1569      1.51%     83.64% # Bytes accessed per row activation
system.mem_ctrls.bytesPerActivate::512-639         8882      8.53%     92.17% # Bytes accessed per row activation
system.mem_ctrls.bytesPerActivate::640-767         1774      1.70%     93.87% # Bytes accessed per row activation
system.mem_ctrls.bytesPerActivate::768-895          480      0.46%     94.33% # Bytes accessed per row activation
system.mem_ctrls.bytesPerActivate::896-1023          360      0.35%     94.68% # Bytes accessed per row activation
system.mem_ctrls.bytesPerActivate::1024-1151         5545      5.32%    100.00% # Bytes accessed per row activation
system.mem_ctrls.bytesPerActivate::total       104163                       # Bytes accessed per row activation
system.mem_ctrls.rdPerTurnAround::samples         6642                       # Reads before turning the bus around for writes
system.mem_ctrls.rdPerTurnAround::mean      30.365854                       # Reads before turning the bus around for writes
system.mem_ctrls.rdPerTurnAround::gmean     23.764257                       # Reads before turning the bus around for writes
system.mem_ctrls.rdPerTurnAround::stdev     62.383725                       # Reads before turning the bus around for writes
system.mem_ctrls.rdPerTurnAround::0-127          6483     97.61%     97.61% # Reads before turning the bus around for writes
system.mem_ctrls.rdPerTurnAround::128-255           28      0.42%     98.03% # Reads before turning the bus around for writes
system.mem_ctrls.rdPerTurnAround::256-383          126      1.90%     99.92% # Reads before turning the bus around for writes
system.mem_ctrls.rdPerTurnAround::384-511            1      0.02%     99.94% # Reads before turning the bus around for writes
system.mem_ctrls.rdPerTurnAround::512-639            1      0.02%     99.95% # Reads before turning the bus around for writes
system.mem_ctrls.rdPerTurnAround::1024-1151            1      0.02%     99.97% # Reads before turning the bus around for writes
system.mem_ctrls.rdPerTurnAround::2432-2559            1      0.02%     99.98% # Reads before turning the bus around for writes
system.mem_ctrls.rdPerTurnAround::3072-3199            1      0.02%    100.00% # Reads before turning the bus around for writes
system.mem_ctrls.rdPerTurnAround::total          6642                       # Reads before turning the bus around for writes
[...]
system.cpu.icache.ReadReq_mshr_misses::.cpu.inst          747                       # number of ReadReq MSHR misses
system.cpu.icache.ReadReq_mshr_misses::total          747                       # number of ReadReq MSHR misses
system.cpu.icache.ReadReq_mshr_miss_latency::.cpu.inst     53988000                       # number of ReadReq MSHR miss cycles
system.cpu.icache.ReadReq_mshr_miss_latency::total     53988000                       # number of ReadReq MSHR miss cycles
system.cpu.icache.ReadReq_mshr_miss_rate::.cpu.inst     0.000077                       # mshr miss rate for ReadReq accesses
system.cpu.icache.ReadReq_mshr_miss_rate::total     0.000077                       # mshr miss rate for ReadReq accesses
system.cpu.icache.ReadReq_avg_mshr_miss_latency::.cpu.inst 72273.092369                       # average ReadReq mshr miss latency
system.cpu.icache.ReadReq_avg_mshr_miss_latency::total 72273.092369                       # average ReadReq mshr miss latency
system.cpu.icache.tags.pwrStateResidencyTicks::UNDEFINED  82203056500                       # Cumulative time (in ticks) in various power states
system.cpu.icache.tags.tagsinuse           360.802465                       # Cycle average of tags in use
system.cpu.icache.tags.total_refs             9663282                       # Total number of references to valid blocks.
system.cpu.icache.tags.sampled_refs               747                       # Sample count of references to valid blocks.
system.cpu.icache.tags.avg_refs          12936.120482                       # Average number of references to valid blocks.
system.cpu.icache.tags.warmup_cycle             87500                       # Cycle when the warmup percentage was hit.
system.cpu.icache.tags.occ_blocks::.cpu.inst   360.802465                       # Average occupied blocks per requestor
system.cpu.icache.tags.occ_percent::.cpu.inst     0.704692                       # Average percentage of cache occupancy
system.cpu.icache.tags.occ_percent::total     0.704692                       # Average percentage of cache occupancy
system.cpu.icache.tags.occ_task_id_blocks::1024          445                       # Occupied blocks per task id
system.cpu.icache.tags.age_task_id_blocks_1024::3          106                       # Occupied blocks per task id
system.cpu.icache.tags.age_task_id_blocks_1024::4          339                       # Occupied blocks per task id
system.cpu.icache.tags.occ_task_id_percent::1024     0.869141                       # Percentage of cache occupancy per task id
system.cpu.icache.tags.tag_accesses          19327311                       # Number of tag accesses
system.cpu.icache.tags.data_accesses         19327311                       # Number of data accesses
system.cpu.dtb.walker.pwrStateResidencyTicks::UNDEFINED  82203056500                       # Cumulative time (in ticks) in various power states
system.cpu.dtb.stage2_mmu.stage2_tlb.walker.pwrStateResidencyTicks::UNDEFINED  82203056500                       # Cumulative time (in ticks) in various power states
system.cpu.dcache.pwrStateResidencyTicks::UNDEFINED  82203056500                       # Cumulative time (in ticks) in various power states
system.cpu.dcache.demand_hits::.cpu.data     51503717                       # number of demand (read+write) hits
system.cpu.dcache.demand_hits::total         51503717                       # number of demand (read+write) hits
system.cpu.dcache.overall_hits::.cpu.data     51504225                       # number of overall hits
system.cpu.dcache.overall_hits::total        51504225                       # number of overall hits
system.cpu.dcache.demand_misses::.cpu.data       562482                       # number of demand (read+write) misses
system.cpu.dcache.demand_misses::total         562482                       # number of demand (read+write) misses
system.cpu.dcache.overall_misses::.cpu.data       570393                       # number of overall misses
system.cpu.dcache.overall_misses::total        570393                       # number of overall misses
system.cpu.dcache.demand_miss_latency::.cpu.data  22452275500                       # number of demand (read+write) miss cycles
system.cpu.dcache.demand_miss_latency::total  22452275500                       # number of demand (read+write) miss cycles
system.cpu.dcache.overall_miss_latency::.cpu.data  22452275500                       # number of overall miss cycles
system.cpu.dcache.overall_miss_latency::total  22452275500                       # number of overall miss cycles
system.cpu.dcache.demand_accesses::.cpu.data     52066199                       # number of demand (read+write) accesses
system.cpu.dcache.demand_accesses::total     52066199                       # number of demand (read+write) accesses
system.cpu.dcache.overall_accesses::.cpu.data     52074618                       # number of overall (read+write) accesses
system.cpu.dcache.overall_accesses::total     52074618                       # number of overall (read+write) accesses
system.cpu.dcache.demand_miss_rate::.cpu.data     0.010803                       # miss rate for demand accesses
system.cpu.dcache.demand_miss_rate::total     0.010803                       # miss rate for demand accesses
system.cpu.dcache.overall_miss_rate::.cpu.data     0.010953                       # miss rate for overall accesses
system.cpu.dcache.overall_miss_rate::total     0.010953                       # miss rate for overall accesses
system.cpu.dcache.demand_avg_miss_latency::.cpu.data 39916.433770                       # average overall miss latency
system.cpu.dcache.demand_avg_miss_latency::total 39916.433770                       # average overall miss latency
system.cpu.dcache.overall_avg_miss_latency::.cpu.data 39362.817391                       # average overall miss latency
system.cpu.dcache.overall_avg_miss_latency::total 39362.817391                       # average overall miss latency
system.cpu.dcache.blocked_cycles::no_mshrs       196743                       # number of cycles access was blocked
system.cpu.dcache.blocked_cycles::no_targets            0                       # number of cycles access was blocked
system.cpu.dcache.blocked::no_mshrs              3288                       # number of cycles access was blocked
system.cpu.dcache.blocked::no_targets               0                       # number of cycles access was blocked
system.cpu.dcache.avg_blocked_cycles::no_mshrs    59.836679                       # average number of cycles each access was blocked
system.cpu.dcache.avg_blocked_cycles::no_targets          nan                       # average number of cycles each access was blocked
system.cpu.dcache.writebacks::.writebacks       434791                       # number of writebacks
system.cpu.dcache.writebacks::total            434791                       # number of writebacks
system.cpu.dcache.demand_mshr_hits::.cpu.data        59022                       # number of demand (read+write) MSHR hits
system.cpu.dcache.demand_mshr_hits::total        59022                       # number of demand (read+write) MSHR hits
system.cpu.dcache.overall_mshr_hits::.cpu.data        59022                       # number of overall MSHR hits
system.cpu.dcache.overall_mshr_hits::total        59022                       # number of overall MSHR hits
system.cpu.dcache.demand_mshr_misses::.cpu.data       503460                       # number of demand (read+write) MSHR misses
system.cpu.dcache.demand_mshr_misses::total       503460                       # number of demand (read+write) MSHR misses
system.cpu.dcache.overall_mshr_misses::.cpu.data       511366                       # number of overall MSHR misses
system.cpu.dcache.overall_mshr_misses::total       511366                       # number of overall MSHR misses
system.cpu.dcache.demand_mshr_miss_latency::.cpu.data  20351470000                       # number of demand (read+write) MSHR miss cycles
system.cpu.dcache.demand_mshr_miss_latency::total  20351470000                       # number of demand (read+write) MSHR miss cycles
system.cpu.dcache.overall_mshr_miss_latency::.cpu.data  21019733999                       # number of overall MSHR miss cycles
system.cpu.dcache.overall_mshr_miss_latency::total  21019733999                       # number of overall MSHR miss cycles
system.cpu.dcache.demand_mshr_miss_rate::.cpu.data     0.009670                       # mshr miss rate for demand accesses
system.cpu.dcache.demand_mshr_miss_rate::total     0.009670                       # mshr miss rate for demand accesses
system.cpu.dcache.overall_mshr_miss_rate::.cpu.data     0.009820                       # mshr miss rate for overall accesses
system.cpu.dcache.overall_mshr_miss_rate::total     0.009820                       # mshr miss rate for overall accesses
system.cpu.dcache.demand_avg_mshr_miss_latency::.cpu.data 40423.211377                       # average overall mshr miss latency
system.cpu.dcache.demand_avg_mshr_miss_latency::total 40423.211377                       # average overall mshr miss latency
system.cpu.dcache.overall_avg_mshr_miss_latency::.cpu.data 41105.067601                       # average overall mshr miss latency
system.cpu.dcache.overall_avg_mshr_miss_latency::total 41105.067601                       # average overall mshr miss latency
system.cpu.dcache.replacements                 509317                       # number of replacements
system.cpu.dcache.ReadReq_hits::.cpu.data     40844826                       # number of ReadReq hits
system.cpu.dcache.ReadReq_hits::total        40844826                       # number of ReadReq hits
system.cpu.dcache.ReadReq_misses::.cpu.data       271272                       # number of ReadReq misses
system.cpu.dcache.ReadReq_misses::total        271272                       # number of ReadReq misses
system.cpu.dcache.ReadReq_miss_latency::.cpu.data   7486731500                       # number of ReadReq miss cycles
system.cpu.dcache.ReadReq_miss_latency::total   7486731500                       # number of ReadReq miss cycles
system.cpu.dcache.ReadReq_accesses::.cpu.data     41116098                       # number of ReadReq accesses(hits+misses)
system.cpu.dcache.ReadReq_accesses::total     41116098                       # number of ReadReq accesses(hits+misses)
system.cpu.dcache.ReadReq_miss_rate::.cpu.data     0.006598                       # miss rate for ReadReq accesses
system.cpu.dcache.ReadReq_miss_rate::total     0.006598                       # miss rate for ReadReq accesses
system.cpu.dcache.ReadReq_avg_miss_latency::.cpu.data 27598.615043                       # average ReadReq miss latency
system.cpu.dcache.ReadReq_avg_miss_latency::total 27598.615043                       # average ReadReq miss latency
system.cpu.dcache.ReadReq_mshr_hits::.cpu.data          674                       # number of ReadReq MSHR hits
system.cpu.dcache.ReadReq_mshr_hits::total          674                       # number of ReadReq MSHR hits
system.cpu.dcache.ReadReq_mshr_misses::.cpu.data       270598                       # number of ReadReq MSHR misses
system.cpu.dcache.ReadReq_mshr_misses::total       270598                       # number of ReadReq MSHR misses
system.cpu.dcache.ReadReq_mshr_miss_latency::.cpu.data   7188991000                       # number of ReadReq MSHR miss cycles
system.cpu.dcache.ReadReq_mshr_miss_latency::total   7188991000                       # number of ReadReq MSHR miss cycles
system.cpu.dcache.ReadReq_mshr_miss_rate::.cpu.data     0.006581                       # mshr miss rate for ReadReq accesses
system.cpu.dcache.ReadReq_mshr_miss_rate::total     0.006581                       # mshr miss rate for ReadReq accesses
system.cpu.dcache.ReadReq_avg_mshr_miss_latency::.cpu.data 26567.051493                       # average ReadReq mshr miss latency
system.cpu.dcache.ReadReq_avg_mshr_miss_latency::total 26567.051493                       # average ReadReq mshr miss latency
system.cpu.dcache.WriteReq_hits::.cpu.data     10658891                       # number of WriteReq hits
system.cpu.dcache.WriteReq_hits::total       10658891                       # number of WriteReq hits
system.cpu.dcache.WriteReq_misses::.cpu.data       291210                       # number of WriteReq misses
system.cpu.dcache.WriteReq_misses::total       291210                       # number of WriteReq misses
system.cpu.dcache.WriteReq_miss_latency::.cpu.data  14965544000                       # number of WriteReq miss cycles
system.cpu.dcache.WriteReq_miss_latency::total  14965544000                       # number of WriteReq miss cycles
system.cpu.dcache.WriteReq_accesses::.cpu.data     10950101                       # number of WriteReq accesses(hits+misses)
system.cpu.dcache.WriteReq_accesses::total     10950101                       # number of WriteReq accesses(hits+misses)
system.cpu.dcache.WriteReq_miss_rate::.cpu.data     0.026594                       # miss rate for WriteReq accesses
system.cpu.dcache.WriteReq_miss_rate::total     0.026594                       # miss rate for WriteReq accesses
system.cpu.dcache.WriteReq_avg_miss_latency::.cpu.data 51390.900038                       # average WriteReq miss latency
system.cpu.dcache.WriteReq_avg_miss_latency::total 51390.900038                       # average WriteReq miss latency
system.cpu.dcache.WriteReq_mshr_hits::.cpu.data        58348                       # number of WriteReq MSHR hits
system.cpu.dcache.WriteReq_mshr_hits::total        58348                       # number of WriteReq MSHR hits
system.cpu.dcache.WriteReq_mshr_misses::.cpu.data       232862                       # number of WriteReq MSHR misses
system.cpu.dcache.WriteReq_mshr_misses::total       232862                       # number of WriteReq MSHR misses
system.cpu.dcache.WriteReq_mshr_miss_latency::.cpu.data  13162479000                       # number of WriteReq MSHR miss cycles
system.cpu.dcache.WriteReq_mshr_miss_latency::total  13162479000                       # number of WriteReq MSHR miss cycles
system.cpu.dcache.WriteReq_mshr_miss_rate::.cpu.data     0.021266                       # mshr miss rate for WriteReq accesses
system.cpu.dcache.WriteReq_mshr_miss_rate::total     0.021266                       # mshr miss rate for WriteReq accesses
system.cpu.dcache.WriteReq_avg_mshr_miss_latency::.cpu.data 56524.804391                       # average WriteReq mshr miss latency
system.cpu.dcache.WriteReq_avg_mshr_miss_latency::total 56524.804391                       # average WriteReq mshr miss latency
system.cpu.dcache.SoftPFReq_hits::.cpu.data          508                       # number of SoftPFReq hits
system.cpu.dcache.SoftPFReq_hits::total           508                       # number of SoftPFReq hits
system.cpu.dcache.SoftPFReq_misses::.cpu.data         7911                       # number of SoftPFReq misses
system.cpu.dcache.SoftPFReq_misses::total         7911                       # number of SoftPFReq misses
system.cpu.dcache.SoftPFReq_accesses::.cpu.data         8419                       # number of SoftPFReq accesses(hits+misses)
system.cpu.dcache.SoftPFReq_accesses::total         8419                       # number of SoftPFReq accesses(hits+misses)
system.cpu.dcache.SoftPFReq_miss_rate::.cpu.data     0.939660                       # miss rate for SoftPFReq accesses
system.cpu.dcache.SoftPFReq_miss_rate::total     0.939660                       # miss rate for SoftPFReq accesses
system.cpu.dcache.SoftPFReq_mshr_misses::.cpu.data         7906                       # number of SoftPFReq MSHR misses
system.cpu.dcache.SoftPFReq_mshr_misses::total         7906                       # number of SoftPFReq MSHR misses
system.cpu.dcache.SoftPFReq_mshr_miss_latency::.cpu.data    668263999                       # number of SoftPFReq MSHR miss cycles
system.cpu.dcache.SoftPFReq_mshr_miss_latency::total    668263999                       # number of SoftPFReq MSHR miss cycles
system.cpu.dcache.SoftPFReq_mshr_miss_rate::.cpu.data     0.939066                       # mshr miss rate for SoftPFReq accesses
system.cpu.dcache.SoftPFReq_mshr_miss_rate::total     0.939066                       # mshr miss rate for SoftPFReq accesses
system.cpu.dcache.SoftPFReq_avg_mshr_miss_latency::.cpu.data 84526.182520                       # average SoftPFReq mshr miss latency
system.cpu.dcache.SoftPFReq_avg_mshr_miss_latency::total 84526.182520                       # average SoftPFReq mshr miss latency
system.cpu.dcache.LoadLockedReq_hits::.cpu.data           38                       # number of LoadLockedReq hits
system.cpu.dcache.LoadLockedReq_hits::total           38                       # number of LoadLockedReq hits
system.cpu.dcache.LoadLockedReq_accesses::.cpu.data           38                       # number of LoadLockedReq accesses(hits+misses)
system.cpu.dcache.LoadLockedReq_accesses::total           38                       # number of LoadLockedReq accesses(hits+misses)
system.cpu.dcache.StoreCondReq_hits::.cpu.data           38                       # number of StoreCondReq hits
system.cpu.dcache.StoreCondReq_hits::total           38                       # number of StoreCondReq hits
system.cpu.dcache.StoreCondReq_accesses::.cpu.data           38                       # number of StoreCondReq accesses(hits+misses)
system.cpu.dcache.StoreCondReq_accesses::total           38                       # number of StoreCondReq accesses(hits+misses)
system.cpu.dcache.tags.pwrStateResidencyTicks::UNDEFINED  82203056500                       # Cumulative time (in ticks) in various power states
system.cpu.dcache.tags.tagsinuse          2012.183411                       # Cycle average of tags in use
system.cpu.dcache.tags.total_refs            52015666                       # Total number of references to valid blocks.
system.cpu.dcache.tags.sampled_refs            511365                       # Sample count of references to valid blocks.
system.cpu.dcache.tags.avg_refs            101.719253                       # Average number of references to valid blocks.
system.cpu.dcache.tags.warmup_cycle            176500                       # Cycle when the warmup percentage was hit.
system.cpu.dcache.tags.occ_blocks::.cpu.data  2012.183411                       # Average occupied blocks per requestor
system.cpu.dcache.tags.occ_percent::.cpu.data     0.982511                       # Average percentage of cache occupancy
system.cpu.dcache.tags.occ_percent::total     0.982511                       # Average percentage of cache occupancy
system.cpu.dcache.tags.occ_task_id_blocks::1024         2048                       # Occupied blocks per task id
system.cpu.dcache.tags.age_task_id_blocks_1024::0          239                       # Occupied blocks per task id
system.cpu.dcache.tags.age_task_id_blocks_1024::1          603                       # Occupied blocks per task id
system.cpu.dcache.tags.age_task_id_blocks_1024::2         1183                       # Occupied blocks per task id
system.cpu.dcache.tags.age_task_id_blocks_1024::3           21                       # Occupied blocks per task id
system.cpu.dcache.tags.age_task_id_blocks_1024::4            2                       # Occupied blocks per task id
system.cpu.dcache.tags.occ_task_id_percent::1024            1                       # Percentage of cache occupancy per task id
system.cpu.dcache.tags.tag_accesses         208810141                       # Number of tag accesses
system.cpu.dcache.tags.data_accesses        208810141                       # Number of data accesses
system.cpu.itb.walker.pwrStateResidencyTicks::UNDEFINED  82203056500                       # Cumulative time (in ticks) in various power states
system.cpu.itb.stage2_mmu.stage2_tlb.walker.pwrStateResidencyTicks::UNDEFINED  82203056500                       # Cumulative time (in ticks) in various power states

---------- End Simulation Statistics   ----------
