
---------- Begin Simulation Statistics ----------
final_tick                                  183262000                       # Number of ticks from beginning of simulation (restored from checkpoints and never reset)
host_inst_rate                                 387023                       # Simulator instruction rate (inst/s)
host_mem_usage                                 678872                       # Number of bytes of host memory used
host_op_rate                                   389157                       # Simulator op (including micro ops) rate (op/s)
host_seconds                                     0.62                       # Real time elapsed on the host
host_tick_rate                              296660127                       # Simulator tick rate (ticks/s)
sim_freq                                 1000000000000                       # Frequency of simulated ticks
sim_insts                                      239049                       # Number of instructions simulated
sim_ops                                        240396                       # Number of ops (including micro ops) simulated
sim_seconds                                  0.000183                       # Number of seconds simulated
sim_ticks                                   183262000                       # Number of ticks simulated
system.cpu.branchPred.BTBCorrect                    0                       # Number of correct BTB predictions (this stat may not work properly.
system.cpu.branchPred.BTBHitPct             84.749004                       # BTB Hit Percentage
system.cpu.branchPred.BTBHits                   10636                       # Number of BTB hits
system.cpu.branchPred.BTBLookups                12550                       # Number of BTB lookups
system.cpu.branchPred.RASInCorrect                  6                       # Number of incorrect RAS predictions.
system.cpu.branchPred.condIncorrect               568                       # Number of conditional branches incorrect
system.cpu.branchPred.condPredicted             12034                       # Number of conditional branches predicted
system.cpu.branchPred.indirectHits                 22                       # Number of indirect target hits.
system.cpu.branchPred.indirectLookups             161                       # Number of indirect predictor lookups.
system.cpu.branchPred.indirectMisses              139                       # Number of indirect misses.
system.cpu.branchPred.lookups                   13139                       # Number of BP lookups
system.cpu.branchPred.usedRAS                     280                       # Number of times the RAS was used to get a target.
system.cpu.branchPredindirectMispredicted           67                       # Number of mispredicted indirect branches.
system.cpu.committedInsts                      239049                       # Number of instructions committed
system.cpu.committedOps                        240396                       # Number of ops (including micro ops) committed
system.cpu.cpi                               1.533259                       # CPI: cycles per instruction
system.cpu.discardedOps                          1857                       # Number of ops (including micro ops) which were discarded before commit
system.cpu.dtb.accesses                             0                       # DTB accesses
system.cpu.dtb.align_faults                         0                       # Number of TLB faults due to alignment restrictions
system.cpu.dtb.domain_faults                        0                       # Number of TLB faults due to domain restrictions
system.cpu.dtb.flush_entries                        0                       # Number of entries that have been flushed from TLB
system.cpu.dtb.flush_tlb                            0                       # Number of times complete TLB was flushed
system.cpu.dtb.flush_tlb_asid                       0                       # Number of times TLB was flushed by ASID
system.cpu.dtb.flush_tlb_mva                        0                       # Number of times TLB was flushed by MVA
system.cpu.dtb.flush_tlb_mva_asid                   0                       # Number of times TLB was flushed by MVA & ASID
system.cpu.dtb.hits                                 0                       # DTB hits
system.cpu.dtb.inst_accesses                        0                       # ITB inst accesses
system.cpu.dtb.inst_hits                            0                       # ITB inst hits
system.cpu.dtb.inst_misses                          0                       # ITB inst misses
system.cpu.dtb.misses                               0                       # DTB misses
system.cpu.dtb.perms_faults                         0                       # Number of TLB faults due to permissions restrictions
system.cpu.dtb.prefetch_faults                      0                       # Number of TLB faults due to prefetch
system.cpu.dtb.read_accesses                        0                       # DTB read accesses
system.cpu.dtb.read_hits                            0                       # DTB read hits
system.cpu.dtb.read_misses                          0                       # DTB read misses
system.cpu.dtb.stage2_mmu.stage2_tlb.accesses            0                       # DTB accesses
system.cpu.dtb.stage2_mmu.stage2_tlb.align_faults            0                       # Number of TLB faults due to alignment restrictions
system.cpu.dtb.stage2_mmu.stage2_tlb.domain_faults            0                       # Number of TLB faults due to domain restrictions
system.cpu.dtb.stage2_mmu.stage2_tlb.flush_entries            0                       # Number of entries that have been flushed from TLB
system.cpu.dtb.stage2_mmu.stage2_tlb.flush_tlb            0                       # Number of times complete TLB was flushed
system.cpu.dtb.stage2_mmu.stage2_tlb.flush_tlb_asid            0                       # Number of times TLB was flushed by ASID
system.cpu.dtb.stage2_mmu.stage2_tlb.flush_tlb_mva            0                       # Number of times TLB was flushed by MVA
system.cpu.dtb.stage2_mmu.stage2_tlb.flush_tlb_mva_asid            0                       # Number of times TLB was flushed by MVA & ASID
system.cpu.dtb.stage2_mmu.stage2_tlb.hits            0                       # DTB hits
system.cpu.dtb.stage2_mmu.stage2_tlb.inst_accesses            0                       # ITB inst accesses
system.cpu.dtb.stage2_mmu.stage2_tlb.inst_hits            0                       # ITB inst hits
system.cpu.dtb.stage2_mmu.stage2_tlb.inst_misses            0                       # ITB inst misses
system.cpu.dtb.stage2_mmu.stage2_tlb.misses            0                       # DTB misses
system.cpu.dtb.stage2_mmu.stage2_tlb.perms_faults            0                       # Number of TLB faults due to permissions restrictions
system.cpu.dtb.stage2_mmu.stage2_tlb.prefetch_faults            0                       # Number of TLB faults due to prefetch
system.cpu.dtb.stage2_mmu.stage2_tlb.read_accesses            0                       # DTB read accesses
system.cpu.dtb.stage2_mmu.stage2_tlb.read_hits            0                       # DTB read hits
system.cpu.dtb.stage2_mmu.stage2_tlb.read_misses            0                       # DTB read misses
system.cpu.dtb.stage2_mmu.stage2_tlb.walker.walkRequestOrigin_Requested::Data            0                       # Table walker requests started/completed, data/inst
system.cpu.dtb.stage2_mmu.stage2_tlb.walker.walkRequestOrigin_Requested::Inst            0                       # Table walker requests started/completed, data/inst
system.cpu.dtb.stage2_mmu.stage2_tlb.walker.walkRequestOrigin_Requested::total            0                       # Table walker requests started/completed, data/inst
system.cpu.dtb.stage2_mmu.stage2_tlb.walker.walkRequestOrigin_Completed::Data            0                       # Table walker requests started/completed, data/inst
system.cpu.dtb.stage2_mmu.stage2_tlb.walker.walkRequestOrigin_Completed::Inst            0                       # Table walker requests started/completed, data/inst
system.cpu.dtb.stage2_mmu.stage2_tlb.walker.walkRequestOrigin_Completed::total            0                       # Table walker requests started/completed, data/inst
system.cpu.dtb.stage2_mmu.stage2_tlb.walker.walkRequestOrigin::total            0                       # Table walker requests started/completed, data/inst
system.cpu.dtb.stage2_mmu.stage2_tlb.walker.walks            0                       # Table walker walks requested
system.cpu.dtb.stage2_mmu.stage2_tlb.write_accesses            0                       # DTB write accesses
system.cpu.dtb.stage2_mmu.stage2_tlb.write_hits            0                       # DTB write hits
system.cpu.dtb.stage2_mmu.stage2_tlb.write_misses            0                       # DTB write misses
system.cpu.dtb.walker.walkRequestOrigin_Requested::Data            0                       # Table walker requests started/completed, data/inst
system.cpu.dtb.walker.walkRequestOrigin_Requested::Inst            0                       # Table walker requests started/completed, data/inst
system.cpu.dtb.walker.walkRequestOrigin_Requested::total            0                       # Table walker requests started/completed, data/inst
system.cpu.dtb.walker.walkRequestOrigin_Completed::Data            0                       # Table walker requests started/completed, data/inst
system.cpu.dtb.walker.walkRequestOrigin_Completed::Inst            0                       # Table walker requests started/completed, data/inst
system.cpu.dtb.walker.walkRequestOrigin_Completed::total            0                       # Table walker requests started/completed, data/inst
system.cpu.dtb.walker.walkRequestOrigin::total            0                       # Table walker requests started/completed, data/inst
system.cpu.dtb.walker.walks                         0                       # Table walker walks requested
system.cpu.dtb.write_accesses                       0                       # DTB write accesses
system.cpu.dtb.write_hits                           0                       # DTB write hits
system.cpu.dtb.write_misses                         0                       # DTB write misses
system.cpu.fetch2.amo_instructions                  0                       # Number of memory atomic instructions successfully decoded
system.cpu.fetch2.fp_instructions                   0                       # Number of floating point instructions successfully decoded
system.cpu.fetch2.int_instructions             109540                       # Number of integer instructions successfully decoded
system.cpu.fetch2.load_instructions            102148                       # Number of memory load instructions successfully decoded
system.cpu.fetch2.store_instructions            21343                       # Number of memory store instructions successfully decoded
system.cpu.fetch2.vec_instructions                  0                       # Number of SIMD instructions successfully decoded
system.cpu.idleCycles                           48837                       # Total number of cycles that the object has spent stopped
system.cpu.ipc                               0.652206                       # IPC: instructions per cycle
system.cpu.itb.accesses                             0                       # DTB accesses
system.cpu.itb.align_faults                         0                       # Number of TLB faults due to alignment restrictions
system.cpu.itb.domain_faults                        0                       # Number of TLB faults due to domain restrictions
system.cpu.itb.flush_entries                        0                       # Number of entries that have been flushed from TLB
system.cpu.itb.flush_tlb                            0                       # Number of times complete TLB was flushed
system.cpu.itb.flush_tlb_asid                       0                       # Number of times TLB was flushed by ASID
system.cpu.itb.flush_tlb_mva                        0                       # Number of times TLB was flushed by MVA
system.cpu.itb.flush_tlb_mva_asid                   0                       # Number of times TLB was flushed by MVA & ASID
system.cpu.itb.hits                                 0                       # DTB hits
system.cpu.itb.inst_accesses                        0                       # ITB inst accesses
system.cpu.itb.inst_hits                            0                       # ITB inst hits
system.cpu.itb.inst_misses                          0                       # ITB inst misses
system.cpu.itb.misses                               0                       # DTB misses
system.cpu.itb.perms_faults                         0                       # Number of TLB faults due to permissions restrictions
system.cpu.itb.prefetch_faults                      0                       # Number of TLB faults due to prefetch
system.cpu.itb.read_accesses                        0                       # DTB read accesses
system.cpu.itb.read_hits                            0                       # DTB read hits
system.cpu.itb.read_misses                          0                       # DTB read misses
system.cpu.itb.stage2_mmu.stage2_tlb.accesses            0                       # DTB accesses
system.cpu.itb.stage2_mmu.stage2_tlb.align_faults            0                       # Number of TLB faults due to alignment restrictions
system.cpu.itb.stage2_mmu.stage2_tlb.domain_faults            0                       # Number of TLB faults due to domain restrictions
system.cpu.itb.stage2_mmu.stage2_tlb.flush_entries            0                       # Number of entries that have been flushed from TLB
system.cpu.itb.stage2_mmu.stage2_tlb.flush_tlb            0                       # Number of times complete TLB was flushed
system.cpu.itb.stage2_mmu.stage2_tlb.flush_tlb_asid            0                       # Number of times TLB was flushed by ASID
system.cpu.itb.stage2_mmu.stage2_tlb.flush_tlb_mva            0                       # Number of times TLB was flushed by MVA
system.cpu.itb.stage2_mmu.stage2_tlb.flush_tlb_mva_asid            0                       # Number of times TLB was flushed by MVA & ASID
system.cpu.itb.stage2_mmu.stage2_tlb.hits            0                       # DTB hits
system.cpu.itb.stage2_mmu.stage2_tlb.inst_accesses            0                       # ITB inst accesses
system.cpu.itb.stage2_mmu.stage2_tlb.inst_hits            0                       # ITB inst hits
system.cpu.itb.stage2_mmu.stage2_tlb.inst_misses            0                       # ITB inst misses
system.cpu.itb.stage2_mmu.stage2_tlb.misses            0                       # DTB misses
system.cpu.itb.stage2_mmu.stage2_tlb.perms_faults            0                       # Number of TLB faults due to permissions restrictions
system.cpu.itb.stage2_mmu.stage2_tlb.prefetch_faults            0                       # Number of TLB faults due to prefetch
system.cpu.itb.stage2_mmu.stage2_tlb.read_accesses            0                       # DTB read accesses
system.cpu.itb.stage2_mmu.stage2_tlb.read_hits            0                       # DTB read hits
system.cpu.itb.stage2_mmu.stage2_tlb.read_misses            0                       # DTB read misses
system.cpu.itb.stage2_mmu.stage2_tlb.walker.walkRequestOrigin_Requested::Data            0                       # Table walker requests started/completed, data/inst
system.cpu.itb.stage2_mmu.stage2_tlb.walker.walkRequestOrigin_Requested::Inst            0                       # Table walker requests started/completed, data/inst
system.cpu.itb.stage2_mmu.stage2_tlb.walker.walkRequestOrigin_Requested::total            0                       # Table walker requests started/completed, data/inst
system.cpu.itb.stage2_mmu.stage2_tlb.walker.walkRequestOrigin_Completed::Data            0                       # Table walker requests started/completed, data/inst
system.cpu.itb.stage2_mmu.stage2_tlb.walker.walkRequestOrigin_Completed::Inst            0                       # Table walker requests started/completed, data/inst
system.cpu.itb.stage2_mmu.stage2_tlb.walker.walkRequestOrigin_Completed::total            0                       # Table walker requests started/completed, data/inst
system.cpu.itb.stage2_mmu.stage2_tlb.walker.walkRequestOrigin::total            0                       # Table walker requests started/completed, data/inst
system.cpu.itb.stage2_mmu.stage2_tlb.walker.walks            0                       # Table walker walks requested
system.cpu.itb.stage2_mmu.stage2_tlb.write_accesses            0                       # DTB write accesses
system.cpu.itb.stage2_mmu.stage2_tlb.write_hits            0                       # DTB write hits
system.cpu.itb.stage2_mmu.stage2_tlb.write_misses            0                       # DTB write misses
system.cpu.itb.walker.walkRequestOrigin_Requested::Data            0                       # Table walker requests started/completed, data/inst
system.cpu.itb.walker.walkRequestOrigin_Requested::Inst            0                       # Table walker requests started/completed, data/inst
system.cpu.itb.walker.walkRequestOrigin_Requested::total            0                       # Table walker requests started/completed, data/inst
system.cpu.itb.walker.walkRequestOrigin_Completed::Data            0                       # Table walker requests started/completed, data/inst
system.cpu.itb.walker.walkRequestOrigin_Completed::Inst            0                       # Table walker requests started/completed, data/inst
system.cpu.itb.walker.walkRequestOrigin_Completed::total            0                       # Table walker requests started/completed, data/inst
system.cpu.itb.walker.walkRequestOrigin::total            0                       # Table walker requests started/completed, data/inst
system.cpu.itb.walker.walks                         0                       # Table walker walks requested
system.cpu.itb.write_accesses                       0                       # DTB write accesses
system.cpu.itb.write_hits                           0                       # DTB write hits
system.cpu.itb.write_misses                         0                       # DTB write misses
system.cpu.numCycles                           366524                       # number of cpu cycles simulated
system.cpu.numFetchSuspends                         0                       # Number of times Execute suspended instruction fetching
system.cpu.numWorkItemsCompleted                    0                       # number of work items this cpu completed
system.cpu.numWorkItemsStarted                      0                       # number of work items this cpu started
system.cpu.op_class_0::No_OpClass                   0      0.00%      0.00% # Class of committed instruction
system.cpu.op_class_0::IntAlu                  117251     48.77%     48.77% # Class of committed instruction
system.cpu.op_class_0::IntMult                     62      0.03%     48.80% # Class of committed instruction
system.cpu.op_class_0::IntDiv                       0      0.00%     48.80% # Class of committed instruction
system.cpu.op_class_0::FloatAdd                     0      0.00%     48.80% # Class of committed instruction
system.cpu.op_class_0::FloatCmp                     0      0.00%     48.80% # Class of committed instruction
system.cpu.op_class_0::FloatCvt                     0      0.00%     48.80% # Class of committed instruction
system.cpu.op_class_0::FloatMult                    0      0.00%     48.80% # Class of committed instruction
system.cpu.op_class_0::FloatMultAcc                 0      0.00%     48.80% # Class of committed instruction
system.cpu.op_class_0::FloatDiv                     0      0.00%     48.80% # Class of committed instruction
system.cpu.op_class_0::FloatMisc                    0      0.00%     48.80% # Class of committed instruction
system.cpu.op_class_0::FloatSqrt                    0      0.00%     48.80% # Class of committed instruction
system.cpu.op_class_0::SimdAdd                      0      0.00%     48.80% # Class of committed instruction
system.cpu.op_class_0::SimdAddAcc                   0      0.00%     48.80% # Class of committed instruction
system.cpu.op_class_0::SimdAlu                      0      0.00%     48.80% # Class of committed instruction
system.cpu.op_class_0::SimdCmp                      0      0.00%     48.80% # Class of committed instruction
system.cpu.op_class_0::SimdCvt                      0      0.00%     48.80% # Class of committed instruction
system.cpu.op_class_0::SimdMisc                     0      0.00%     48.80% # Class of committed instruction
system.cpu.op_class_0::SimdMult                     0      0.00%     48.80% # Class of committed instruction
system.cpu.op_class_0::SimdMultAcc                  0      0.00%     48.80% # Class of committed instruction
system.cpu.op_class_0::SimdShift                    0      0.00%     48.80% # Class of committed instruction
system.cpu.op_class_0::SimdShiftAcc                 0      0.00%     48.80% # Class of committed instruction
system.cpu.op_class_0::SimdDiv                      0      0.00%     48.80% # Class of committed instruction
system.cpu.op_class_0::SimdSqrt                     0      0.00%     48.80% # Class of committed instruction
system.cpu.op_class_0::SimdFloatAdd                 0      0.00%     48.80% # Class of committed instruction
system.cpu.op_class_0::SimdFloatAlu                 0      0.00%     48.80% # Class of committed instruction
system.cpu.op_class_0::SimdFloatCmp                 0      0.00%     48.80% # Class of committed instruction
system.cpu.op_class_0::SimdFloatCvt                 0      0.00%     48.80% # Class of committed instruction
system.cpu.op_class_0::SimdFloatDiv                 0      0.00%     48.80% # Class of committed instruction
system.cpu.op_class_0::SimdFloatMisc               21      0.01%     48.81% # Class of committed instruction
system.cpu.op_class_0::SimdFloatMult                0      0.00%     48.81% # Class of committed instruction
system.cpu.op_class_0::SimdFloatMultAcc             0      0.00%     48.81% # Class of committed instruction
system.cpu.op_class_0::SimdFloatSqrt                0      0.00%     48.81% # Class of committed instruction
system.cpu.op_class_0::SimdReduceAdd                0      0.00%     48.81% # Class of committed instruction
system.cpu.op_class_0::SimdReduceAlu                0      0.00%     48.81% # Class of committed instruction
system.cpu.op_class_0::SimdReduceCmp                0      0.00%     48.81% # Class of committed instruction
system.cpu.op_class_0::SimdFloatReduceAdd            0      0.00%     48.81% # Class of committed instruction
system.cpu.op_class_0::SimdFloatReduceCmp            0      0.00%     48.81% # Class of committed instruction
system.cpu.op_class_0::SimdAes                      0      0.00%     48.81% # Class of committed instruction
system.cpu.op_class_0::SimdAesMix                   0      0.00%     48.81% # Class of committed instruction
system.cpu.op_class_0::SimdSha1Hash                 0      0.00%     48.81% # Class of committed instruction
system.cpu.op_class_0::SimdSha1Hash2                0      0.00%     48.81% # Class of committed instruction
system.cpu.op_class_0::SimdSha256Hash               0      0.00%     48.81% # Class of committed instruction
system.cpu.op_class_0::SimdSha256Hash2              0      0.00%     48.81% # Class of committed instruction
system.cpu.op_class_0::SimdShaSigma2                0      0.00%     48.81% # Class of committed instruction
system.cpu.op_class_0::SimdShaSigma3                0      0.00%     48.81% # Class of committed instruction
system.cpu.op_class_0::SimdPredAlu                  0      0.00%     48.81% # Class of committed instruction
system.cpu.op_class_0::MemRead                 101459     42.20%     91.01% # Class of committed instruction
system.cpu.op_class_0::MemWrite                 21603      8.99%    100.00% # Class of committed instruction
system.cpu.op_class_0::FloatMemRead                 0      0.00%    100.00% # Class of committed instruction
system.cpu.op_class_0::FloatMemWrite                0      0.00%    100.00% # Class of committed instruction
system.cpu.op_class_0::IprAccess                    0      0.00%    100.00% # Class of committed instruction
system.cpu.op_class_0::InstPrefetch                 0      0.00%    100.00% # Class of committed instruction
system.cpu.op_class_0::total                   240396                       # Class of committed instruction
system.cpu.tickCycles                          317687                       # Number of cycles that the object actually ticked
system.cpu.workload.numSyscalls                    10                       # Number of system calls
system.membus.snoop_filter.hit_multi_requests            5                       # Number of requests hitting in the snoop filter with multiple (>1) holders of the requested data.
system.membus.snoop_filter.hit_multi_snoops            0                       # Number of snoops hitting in the snoop filter with multiple (>1) holders of the requested data.
system.membus.snoop_filter.hit_single_requests          122                       # Number of requests hitting in the snoop filter with a single holder of the requested data.
system.membus.snoop_filter.hit_single_snoops            0                       # Number of snoops hitting in the snoop filter with a single holder of the requested data.
system.membus.snoop_filter.tot_requests           697                       # Total number of requests made to the snoop filter.
system.membus.snoop_filter.tot_snoops               0                       # Total number of snoops made to the snoop filter.
system.membus.pwrStateResidencyTicks::UNDEFINED    183262000                       # Cumulative time (in ticks) in various power states
system.membus.trans_dist::ReadResp                526                       # Transaction distribution
system.membus.trans_dist::WritebackClean           99                       # Transaction distribution
system.membus.trans_dist::CleanEvict                1                       # Transaction distribution
system.membus.trans_dist::ReadExReq                71                       # Transaction distribution
system.membus.trans_dist::ReadExResp               71                       # Transaction distribution
system.membus.trans_dist::ReadCleanReq            417                       # Transaction distribution
system.membus.trans_dist::ReadSharedReq           109                       # Transaction distribution
system.membus.pkt_count_system.cpu.icache.mem_side::system.mem_ctrls.port          933                       # Packet count per connected master and slave (bytes)
system.membus.pkt_count_system.cpu.dcache.mem_side::system.mem_ctrls.port          361                       # Packet count per connected master and slave (bytes)
system.membus.pkt_count::total                   1294                       # Packet count per connected master and slave (bytes)
system.membus.pkt_size_system.cpu.icache.mem_side::system.mem_ctrls.port        33024                       # Cumulative packet size per connected master and slave (bytes)
system.membus.pkt_size_system.cpu.dcache.mem_side::system.mem_ctrls.port        11520                       # Cumulative packet size per connected master and slave (bytes)
system.membus.pkt_size::total                   44544                       # Cumulative packet size per connected master and slave (bytes)
system.membus.snoops                                0                       # Total snoops (count)
system.membus.snoopTraffic                          0                       # Total snoop traffic (bytes)
system.membus.snoop_fanout::samples               597                       # Request fanout histogram
system.membus.snoop_fanout::mean             0.045226                       # Request fanout histogram
system.membus.snoop_fanout::stdev            0.207974                       # Request fanout histogram
system.membus.snoop_fanout::underflows              0      0.00%      0.00% # Request fanout histogram
system.membus.snoop_fanout::0                     570     95.48%     95.48% # Request fanout histogram
system.membus.snoop_fanout::1                      27      4.52%    100.00% # Request fanout histogram
system.membus.snoop_fanout::2                       0      0.00%    100.00% # Request fanout histogram
system.membus.snoop_fanout::overflows               0      0.00%    100.00% # Request fanout histogram
system.membus.snoop_fanout::min_value               0                       # Request fanout histogram
system.membus.snoop_fanout::max_value               1                       # Request fanout histogram
system.membus.snoop_fanout::total                 597                       # Request fanout histogram
system.membus.reqLayer0.occupancy             1188000                       # Layer occupancy (ticks)
system.membus.reqLayer0.utilization               0.6                       # Layer utilization (%)
system.membus.respLayer1.occupancy            2272976                       # Layer occupancy (ticks)
system.membus.respLayer1.utilization              1.2                       # Layer utilization (%)
system.membus.respLayer2.occupancy             973898                       # Layer occupancy (ticks)
system.membus.respLayer2.utilization              0.5                       # Layer utilization (%)
system.voltage_domain.voltage                       1                       # Voltage in Volts
system.clk_domain.clock                          1000                       # Clock period in ticks
system.cpu_voltage_domain.voltage                   1                       # Voltage in Volts
system.mem_ctrls.pwrStateResidencyTicks::UNDEFINED    183262000                       # Cumulative time (in ticks) in various power states
system.mem_ctrls.bytes_read::.cpu.inst          26688                       # Number of bytes read from this memory
system.mem_ctrls.bytes_read::.cpu.data          11520                       # Number of bytes read from this memory
system.mem_ctrls.bytes_read::total              38208                       # Number of bytes read from this memory
system.mem_ctrls.bytes_inst_read::.cpu.inst        26688                       # Number of instructions bytes read from this memory
system.mem_ctrls.bytes_inst_read::total         26688                       # Number of instructions bytes read from this memory
system.mem_ctrls.num_reads::.cpu.inst             417                       # Number of read requests responded to by this memory
system.mem_ctrls.num_reads::.cpu.data             180                       # Number of read requests responded to by this memory
system.mem_ctrls.num_reads::total                 597                       # Number of read requests responded to by this memory
system.mem_ctrls.bw_read::.cpu.inst         145627571                       # Total read bandwidth from this memory (bytes/s)
system.mem_ctrls.bw_read::.cpu.data          62860822                       # Total read bandwidth from this memory (bytes/s)
system.mem_ctrls.bw_read::total             208488394                       # Total read bandwidth from this memory (bytes/s)
system.mem_ctrls.bw_inst_read::.cpu.inst    145627571                       # Instruction read bandwidth from this memory (bytes/s)
system.mem_ctrls.bw_inst_read::total        145627571                       # Instruction read bandwidth from this memory (bytes/s)
system.mem_ctrls.bw_total::.cpu.inst        145627571                       # Total bandwidth to/from this memory (bytes/s)
system.mem_ctrls.bw_total::.cpu.data         62860822                       # Total bandwidth to/from this memory (bytes/s)
system.mem_ctrls.bw_total::total            208488394                       # Total bandwidth to/from this memory (bytes/s)
system.mem_ctrls.avgPriority_.writebacks::samples        89.00                       # Average QoS priority value for accepted requests
system.mem_ctrls.avgPriority_.cpu.inst::samples       397.00                       # Average QoS priority value for accepted requests
system.mem_ctrls.avgPriority_.cpu.data::samples       179.00                       # Average QoS priority value for accepted requests
system.mem_ctrls.priorityMinLatency      0.000000017492                       # per QoS priority minimum request to response latency (s)
system.mem_ctrls.priorityMaxLatency      0.000340189652                       # per QoS priority maximum request to response latency (s)
system.mem_ctrls.numReadWriteTurnArounds            2                       # Number of turnarounds from READ to WRITE
system.mem_ctrls.numWriteReadTurnArounds            2                       # Number of turnarounds from WRITE to READ
system.mem_ctrls.numStayReadState                1289                       # Number of times bus staying in READ state
system.mem_ctrls.numStayWriteState                 30                       # Number of times bus staying in WRITE state
system.mem_ctrls.readReqs                         597                       # Number of read requests accepted
system.mem_ctrls.writeReqs                         94                       # Number of write requests accepted
system.mem_ctrls.readBursts                       597                       # Number of DRAM read bursts, including those serviced by the write queue
system.mem_ctrls.writeBursts                       94                       # Number of DRAM write bursts, including those merged in the write queue
system.mem_ctrls.servicedByWrQ                     21                       # Number of DRAM read bursts serviced by the write queue
system.mem_ctrls.mergedWrBursts                     5                       # Number of DRAM write bursts merged with an existing one
system.mem_ctrls.neitherReadNorWriteReqs            0                       # Number of requests that are neither read nor write
system.mem_ctrls.perBankRdBursts::0                44                       # Per bank write bursts
system.mem_ctrls.perBankRdBursts::1                 2                       # Per bank write bursts
system.mem_ctrls.perBankRdBursts::2                23                       # Per bank write bursts
system.mem_ctrls.perBankRdBursts::3                49                       # Per bank write bursts
system.mem_ctrls.perBankRdBursts::4                 0                       # Per bank write bursts
system.mem_ctrls.perBankRdBursts::5                31                       # Per bank write bursts
system.mem_ctrls.perBankRdBursts::6                36                       # Per bank write bursts
system.mem_ctrls.perBankRdBursts::7                50                       # Per bank write bursts
system.mem_ctrls.perBankRdBursts::8                88                       # Per bank write bursts
system.mem_ctrls.perBankRdBursts::9                62                       # Per bank write bursts
system.mem_ctrls.perBankRdBursts::10               27                       # Per bank write bursts
system.mem_ctrls.perBankRdBursts::11               63                       # Per bank write bursts
system.mem_ctrls.perBankRdBursts::12                1                       # Per bank write bursts
system.mem_ctrls.perBankRdBursts::13                0                       # Per bank write bursts
system.mem_ctrls.perBankRdBursts::14                0                       # Per bank write bursts
system.mem_ctrls.perBankRdBursts::15                0                       # Per bank write bursts
system.mem_ctrls.perBankRdBursts::16               12                       # Per bank write bursts
system.mem_ctrls.perBankRdBursts::17                0                       # Per bank write bursts
system.mem_ctrls.perBankRdBursts::18                0                       # Per bank write bursts
system.mem_ctrls.perBankRdBursts::19                0                       # Per bank write bursts
system.mem_ctrls.perBankRdBursts::20               13                       # Per bank write bursts
system.mem_ctrls.perBankRdBursts::21                6                       # Per bank write bursts
system.mem_ctrls.perBankRdBursts::22                7                       # Per bank write bursts
system.mem_ctrls.perBankRdBursts::23                0                       # Per bank write bursts
system.mem_ctrls.perBankRdBursts::24               27                       # Per bank write bursts
system.mem_ctrls.perBankRdBursts::25                7                       # Per bank write bursts
system.mem_ctrls.perBankRdBursts::26                0                       # Per bank write bursts
system.mem_ctrls.perBankRdBursts::27                6                       # Per bank write bursts
system.mem_ctrls.perBankRdBursts::28               10                       # Per bank write bursts
system.mem_ctrls.perBankRdBursts::29                7                       # Per bank write bursts
system.mem_ctrls.perBankRdBursts::30                5                       # Per bank write bursts
system.mem_ctrls.perBankRdBursts::31                0                       # Per bank write bursts
system.mem_ctrls.perBankWrBursts::0                14                       # Per bank write bursts
system.mem_ctrls.perBankWrBursts::1                 0                       # Per bank write bursts
system.mem_ctrls.perBankWrBursts::2                 2                       # Per bank write bursts
system.mem_ctrls.perBankWrBursts::3                 3                       # Per bank write bursts
system.mem_ctrls.perBankWrBursts::4                 0                       # Per bank write bursts
system.mem_ctrls.perBankWrBursts::5                 0                       # Per bank write bursts
system.mem_ctrls.perBankWrBursts::6                 0                       # Per bank write bursts
system.mem_ctrls.perBankWrBursts::7                 8                       # Per bank write bursts
system.mem_ctrls.perBankWrBursts::8                 0                       # Per bank write bursts
system.mem_ctrls.perBankWrBursts::9                 0                       # Per bank write bursts
system.mem_ctrls.perBankWrBursts::10                0                       # Per bank write bursts
system.mem_ctrls.perBankWrBursts::11                5                       # Per bank write bursts
system.mem_ctrls.perBankWrBursts::12                0                       # Per bank write bursts
system.mem_ctrls.perBankWrBursts::13                0                       # Per bank write bursts
system.mem_ctrls.perBankWrBursts::14                0                       # Per bank write bursts
system.mem_ctrls.perBankWrBursts::15                0                       # Per bank write bursts
system.mem_ctrls.perBankWrBursts::16                0                       # Per bank write bursts
system.mem_ctrls.perBankWrBursts::17                0                       # Per bank write bursts
system.mem_ctrls.perBankWrBursts::18                0                       # Per bank write bursts
system.mem_ctrls.perBankWrBursts::19                0                       # Per bank write bursts
system.mem_ctrls.perBankWrBursts::20                0                       # Per bank write bursts
system.mem_ctrls.perBankWrBursts::21                0                       # Per bank write bursts
system.mem_ctrls.perBankWrBursts::22                0                       # Per bank write bursts
system.mem_ctrls.perBankWrBursts::23                0                       # Per bank write bursts
system.mem_ctrls.perBankWrBursts::24                0                       # Per bank write bursts
system.mem_ctrls.perBankWrBursts::25                0                       # Per bank write bursts
system.mem_ctrls.perBankWrBursts::26                0                       # Per bank write bursts
system.mem_ctrls.perBankWrBursts::27                0                       # Per bank write bursts
system.mem_ctrls.perBankWrBursts::28                0                       # Per bank write bursts
system.mem_ctrls.perBankWrBursts::29                0                       # Per bank write bursts
system.mem_ctrls.perBankWrBursts::30                0                       # Per bank write bursts
system.mem_ctrls.perBankWrBursts::31                0                       # Per bank write bursts
system.mem_ctrls.avgRdQLen                       1.03                       # Average read queue length when enqueuing
system.mem_ctrls.avgWrQLen                      27.35                       # Average write queue length when enqueuing
system.mem_ctrls.totQLat                      2973294                       # Total ticks spent queuing
system.mem_ctrls.totBusLat                    1919232                       # Total ticks spent in databus transfers
system.mem_ctrls.totMemAccLat                13048686                       # Total ticks spent from burst creation until serviced by the DRAM
system.mem_ctrls.avgQLat                      5161.97                       # Average queueing delay per DRAM burst
system.mem_ctrls.avgBusLat                    3332.00                       # Average bus latency per DRAM burst
system.mem_ctrls.avgMemAccLat                22653.97                       # Average memory access latency per DRAM burst
system.mem_ctrls.numRdRetry                         0                       # Number of times read queue was full causing retry
system.mem_ctrls.numWrRetry                         0                       # Number of times write queue was full causing retry
system.mem_ctrls.readRowHits                      475                       # Number of row buffer hits during reads
system.mem_ctrls.writeRowHits                      30                       # Number of row buffer hits during writes
system.mem_ctrls.readRowHitRate                 82.47                       # Row buffer hit rate for reads
system.mem_ctrls.writeRowHitRate                33.71                       # Row buffer hit rate for writes
system.mem_ctrls.readPktSize::0                     0                       # Read request sizes (log2)
system.mem_ctrls.readPktSize::1                     0                       # Read request sizes (log2)
system.mem_ctrls.readPktSize::2                     0                       # Read request sizes (log2)
system.mem_ctrls.readPktSize::3                     0                       # Read request sizes (log2)
system.mem_ctrls.readPktSize::4                     0                       # Read request sizes (log2)
system.mem_ctrls.readPktSize::5                     0                       # Read request sizes (log2)
system.mem_ctrls.readPktSize::6                   597                       # Read request sizes (log2)
system.mem_ctrls.writePktSize::0                    0                       # Write request sizes (log2)
system.mem_ctrls.writePktSize::1                    0                       # Write request sizes (log2)
system.mem_ctrls.writePktSize::2                    0                       # Write request sizes (log2)
system.mem_ctrls.writePktSize::3                    0                       # Write request sizes (log2)
system.mem_ctrls.writePktSize::4                    0                       # Write request sizes (log2)
system.mem_ctrls.writePktSize::5                    0                       # Write request sizes (log2)
system.mem_ctrls.writePktSize::6                   94                       # Write request sizes (log2)
system.mem_ctrls.rdQLenPdf::0                     483                       # What read queue length does an incoming req see
system.mem_ctrls.rdQLenPdf::1                      89                       # What read queue length does an incoming req see
system.mem_ctrls.rdQLenPdf::2                       4                       # What read queue length does an incoming req see
system.mem_ctrls.rdQLenPdf::3                       0                       # What read queue length does an incoming req see
system.mem_ctrls.rdQLenPdf::4                       0                       # What read queue length does an incoming req see
system.mem_ctrls.rdQLenPdf::5                       0                       # What read queue length does an incoming req see
system.mem_ctrls.rdQLenPdf::6                       0                       # What read queue length does an incoming req see
system.mem_ctrls.rdQLenPdf::7                       0                       # What read queue length does an incoming req see
system.mem_ctrls.rdQLenPdf::8                       0                       # What read queue length does an incoming req see
system.mem_ctrls.rdQLenPdf::9                       0                       # What read queue length does an incoming req see
system.mem_ctrls.rdQLenPdf::10                      0                       # What read queue length does an incoming req see
system.mem_ctrls.rdQLenPdf::11                      0                       # What read queue length does an incoming req see
system.mem_ctrls.rdQLenPdf::12                      0                       # What read queue length does an incoming req see
system.mem_ctrls.rdQLenPdf::13                      0                       # What read queue length does an incoming req see
system.mem_ctrls.rdQLenPdf::14                      0                       # What read queue length does an incoming req see
system.mem_ctrls.rdQLenPdf::15                      0                       # What read queue length does an incoming req see
system.mem_ctrls.rdQLenPdf::16                      0                       # What read queue length does an incoming req see
system.mem_ctrls.rdQLenPdf::17                      0                       # What read queue length does an incoming req see
system.mem_ctrls.rdQLenPdf::18                      0                       # What read queue length does an incoming req see
system.mem_ctrls.rdQLenPdf::19                      0                       # What read queue length does an incoming req see
system.mem_ctrls.rdQLenPdf::20                      0                       # What read queue length does an incoming req see
system.mem_ctrls.rdQLenPdf::21                      0                       # What read queue length does an incoming req see
system.mem_ctrls.rdQLenPdf::22                      0                       # What read queue length does an incoming req see
system.mem_ctrls.rdQLenPdf::23                      0                       # What read queue length does an incoming req see
system.mem_ctrls.rdQLenPdf::24                      0                       # What read queue length does an incoming req see
system.mem_ctrls.rdQLenPdf::25                      0                       # What read queue length does an incoming req see
system.mem_ctrls.rdQLenPdf::26                      0                       # What read queue length does an incoming req see
system.mem_ctrls.rdQLenPdf::27                      0                       # What read queue length does an incoming req see
system.mem_ctrls.rdQLenPdf::28                      0                       # What read queue length does an incoming req see
system.mem_ctrls.rdQLenPdf::29                      0                       # What read queue length does an incoming req see
system.mem_ctrls.rdQLenPdf::30                      0                       # What read queue length does an incoming req see
system.mem_ctrls.rdQLenPdf::31                      0                       # What read queue length does an incoming req see
system.mem_ctrls.rdQLenPdf::32                      0                       # What read queue length does an incoming req see
system.mem_ctrls.rdQLenPdf::33                      0                       # What read queue length does an incoming req see
system.mem_ctrls.rdQLenPdf::34                      0                       # What read queue length does an incoming req see
system.mem_ctrls.rdQLenPdf::35                      0                       # What read queue length does an incoming req see
system.mem_ctrls.rdQLenPdf::36                      0                       # What read queue length does an incoming req see
system.mem_ctrls.rdQLenPdf::37                      0                       # What read queue length does an incoming req see
system.mem_ctrls.rdQLenPdf::38                      0                       # What read queue length does an incoming req see
system.mem_ctrls.rdQLenPdf::39                      0                       # What read queue length does an incoming req see
system.mem_ctrls.rdQLenPdf::40                      0                       # What read queue length does an incoming req see
system.mem_ctrls.rdQLenPdf::41                      0                       # What read queue length does an incoming req see
system.mem_ctrls.rdQLenPdf::42                      0                       # What read queue length does an incoming req see
system.mem_ctrls.rdQLenPdf::43                      0                       # What read queue length does an incoming req see
system.mem_ctrls.rdQLenPdf::44                      0                       # What read queue length does an incoming req see
system.mem_ctrls.rdQLenPdf::45                      0                       # What read queue length does an incoming req see
system.mem_ctrls.rdQLenPdf::46                      0                       # What read queue length does an incoming req see
system.mem_ctrls.rdQLenPdf::47                      0                       # What read queue length does an incoming req see
system.mem_ctrls.rdQLenPdf::48                      0                       # What read queue length does an incoming req see
system.mem_ctrls.rdQLenPdf::49                      0                       # What read queue length does an incoming req see
system.mem_ctrls.rdQLenPdf::50                      0                       # What read queue length does an incoming req see
system.mem_ctrls.rdQLenPdf::51                      0                       # What read queue length does an incoming req see
system.mem_ctrls.rdQLenPdf::52                      0                       # What read queue length does an incoming req see
system.mem_ctrls.rdQLenPdf::53                      0                       # What read queue length does an incoming req see
system.mem_ctrls.rdQLenPdf::54                      0                       # What read queue length does an incoming req see
system.mem_ctrls.rdQLenPdf::55                      0                       # What read queue length does an incoming req see
system.mem_ctrls.rdQLenPdf::56                      0                       # What read queue length does an incoming req see
system.mem_ctrls.rdQLenPdf::57                      0                       # What read queue length does an incoming req see
system.mem_ctrls.rdQLenPdf::58                      0                       # What read queue length does an incoming req see
system.mem_ctrls.rdQLenPdf::59                      0                       # What read queue length does an incoming req see
system.mem_ctrls.rdQLenPdf::60                      0                       # What read queue length does an incoming req see
system.mem_ctrls.rdQLenPdf::61                      0                       # What read queue length does an incoming req see
system.mem_ctrls.rdQLenPdf::62                      0                       # What read queue length does an incoming req see
system.mem_ctrls.rdQLenPdf::63                      0                       # What read queue length does an incoming req see
system.mem_ctrls.wrQLenPdf::0                       1                       # What write queue length does an incoming req see
system.mem_ctrls.wrQLenPdf::1                       1                       # What write queue length does an incoming req see
system.mem_ctrls.wrQLenPdf::2                       1                       # What write queue length does an incoming req see
system.mem_ctrls.wrQLenPdf::3                       1                       # What write queue length does an incoming req see
system.mem_ctrls.wrQLenPdf::4                       1                       # What write queue length does an incoming req see
system.mem_ctrls.wrQLenPdf::5                       1                       # What write queue length does an incoming req see
system.mem_ctrls.wrQLenPdf::6                       1                       # What write queue length does an incoming req see
system.mem_ctrls.wrQLenPdf::7                       1                       # What write queue length does an incoming req see
system.mem_ctrls.wrQLenPdf::8                       1                       # What write queue length does an incoming req see
system.mem_ctrls.wrQLenPdf::9                       1                       # What write queue length does an incoming req see
system.mem_ctrls.wrQLenPdf::10                      1                       # What write queue length does an incoming req see
system.mem_ctrls.wrQLenPdf::11                      1                       # What write queue length does an incoming req see
system.mem_ctrls.wrQLenPdf::12                      1                       # What write queue length does an incoming req see
system.mem_ctrls.wrQLenPdf::13                      1                       # What write queue length does an incoming req see
system.mem_ctrls.wrQLenPdf::14                      1                       # What write queue length does an incoming req see
system.mem_ctrls.wrQLenPdf::15                      1                       # What write queue length does an incoming req see
system.mem_ctrls.wrQLenPdf::16                      1                       # What write queue length does an incoming req see
system.mem_ctrls.wrQLenPdf::17                      1                       # What write queue length does an incoming req see
system.mem_ctrls.wrQLenPdf::18                      1                       # What write queue length does an incoming req see
system.mem_ctrls.wrQLenPdf::19                      1                       # What write queue length does an incoming req see
system.mem_ctrls.wrQLenPdf::20                      1                       # What write queue length does an incoming req see
system.mem_ctrls.wrQLenPdf::21                      1                       # What write queue length does an incoming req see
system.mem_ctrls.wrQLenPdf::22                      1                       # What write queue length does an incoming req see
system.mem_ctrls.wrQLenPdf::23                      1                       # What write queue length does an incoming req see
system.mem_ctrls.wrQLenPdf::24                      1                       # What write queue length does an incoming req see
system.mem_ctrls.wrQLenPdf::25                      1                       # What write queue length does an incoming req see
system.mem_ctrls.wrQLenPdf::26                      1                       # What write queue length does an incoming req see
system.mem_ctrls.wrQLenPdf::27                      1                       # What write queue length does an incoming req see
system.mem_ctrls.wrQLenPdf::28                      1                       # What write queue length does an incoming req see
system.mem_ctrls.wrQLenPdf::29                      1                       # What write queue length does an incoming req see
system.mem_ctrls.wrQLenPdf::30                      1                       # What write queue length does an incoming req see
system.mem_ctrls.wrQLenPdf::31                      1                       # What write queue length does an incoming req see
system.mem_ctrls.wrQLenPdf::32                      1                       # What write queue length does an incoming req see
system.mem_ctrls.wrQLenPdf::33                      1                       # What write queue length does an incoming req see
system.mem_ctrls.wrQLenPdf::34                      1                       # What write queue length does an incoming req see
system.mem_ctrls.wrQLenPdf::35                      1                       # What write queue length does an incoming req see
system.mem_ctrls.wrQLenPdf::36                      1                       # What write queue length does an incoming req see
system.mem_ctrls.wrQLenPdf::37                      1                       # What write queue length does an incoming req see
system.mem_ctrls.wrQLenPdf::38                      1                       # What write queue length does an incoming req see
system.mem_ctrls.wrQLenPdf::39                      1                       # What write queue length does an incoming req see
system.mem_ctrls.wrQLenPdf::40                      1                       # What write queue length does an incoming req see
system.mem_ctrls.wrQLenPdf::41                      1                       # What write queue length does an incoming req see
system.mem_ctrls.wrQLenPdf::42                      1                       # What write queue length does an incoming req see
system.mem_ctrls.wrQLenPdf::43                      1                       # What write queue length does an incoming req see
system.mem_ctrls.wrQLenPdf::44                      1                       # What write queue length does an incoming req see
system.mem_ctrls.wrQLenPdf::45                      1                       # What write queue length does an incoming req see
system.mem_ctrls.wrQLenPdf::46                      1                       # What write queue length does an incoming req see
system.mem_ctrls.wrQLenPdf::47                      1                       # What write queue length does an incoming req see
system.mem_ctrls.wrQLenPdf::48                      1                       # What write queue length does an incoming req see
system.mem_ctrls.wrQLenPdf::49                      3                       # What write queue length does an incoming req see
system.mem_ctrls.wrQLenPdf::50                      3                       # What write queue length does an incoming req see
system.mem_ctrls.wrQLenPdf::51                      3                       # What write queue length does an incoming req see
system.mem_ctrls.wrQLenPdf::52                      3                       # What write queue length does an incoming req see
system.mem_ctrls.wrQLenPdf::53                      3                       # What write queue length does an incoming req see
system.mem_ctrls.wrQLenPdf::54                      3                       # What write queue length does an incoming req see
system.mem_ctrls.wrQLenPdf::55                      3                       # What write queue length does an incoming req see
system.mem_ctrls.wrQLenPdf::56                      3                       # What write queue length does an incoming req see
system.mem_ctrls.wrQLenPdf::57                      2                       # What write queue length does an incoming req see
system.mem_ctrls.wrQLenPdf::58                      2                       # What write queue length does an incoming req see
system.mem_ctrls.wrQLenPdf::59                      2                       # What write queue length does an incoming req see
system.mem_ctrls.wrQLenPdf::60                      2                       # What write queue length does an incoming req see
system.mem_ctrls.wrQLenPdf::61                      2                       # What write queue length does an incoming req see
system.mem_ctrls.wrQLenPdf::62                      2                       # What write queue length does an incoming req see
system.mem_ctrls.wrQLenPdf::63                      2                       # What write queue length does an incoming req see
system.mem_ctrls.wrQLenPdf::64                      2                       # What write queue length does an incoming req see
system.mem_ctrls.wrQLenPdf::65                      0                       # What write queue length does an incoming req see
system.mem_ctrls.wrQLenPdf::66                      0                       # What write queue length does an incoming req see
system.mem_ctrls.wrQLenPdf::67                      0                       # What write queue length does an incoming req see
system.mem_ctrls.wrQLenPdf::68                      0                       # What write queue length does an incoming req see
system.mem_ctrls.wrQLenPdf::69                      0                       # What write queue length does an incoming req see
system.mem_ctrls.wrQLenPdf::70                      0                       # What write queue length does an incoming req see
system.mem_ctrls.wrQLenPdf::71                      0                       # What write queue length does an incoming req see
system.mem_ctrls.wrQLenPdf::72                      0                       # What write queue length does an incoming req see
system.mem_ctrls.wrQLenPdf::73                      0                       # What write queue length does an incoming req see
system.mem_ctrls.wrQLenPdf::74                      0                       # What write queue length does an incoming req see
system.mem_ctrls.wrQLenPdf::75                      0                       # What write queue length does an incoming req see
system.mem_ctrls.wrQLenPdf::76                      0                       # What write queue length does an incoming req see
system.mem_ctrls.wrQLenPdf::77                      0                       # What write queue length does an incoming req see
system.mem_ctrls.wrQLenPdf::78                      0                       # What write queue length does an incoming req see
system.mem_ctrls.wrQLenPdf::79                      0                       # What write queue length does an incoming req see
system.mem_ctrls.wrQLenPdf::80                      0                       # What write queue length does an incoming req see
system.mem_ctrls.wrQLenPdf::81                      0                       # What write queue length does an incoming req see
system.mem_ctrls.wrQLenPdf::82                      0                       # What write queue length does an incoming req see
system.mem_ctrls.wrQLenPdf::83                      0                       # What write queue length does an incoming req see
system.mem_ctrls.wrQLenPdf::84                      0                       # What write queue length does an incoming req see
system.mem_ctrls.wrQLenPdf::85                      0                       # What write queue length does an incoming req see
system.mem_ctrls.wrQLenPdf::86                      0                       # What write queue length does an incoming req see
system.mem_ctrls.wrQLenPdf::87                      0                       # What write queue length does an incoming req see
system.mem_ctrls.wrQLenPdf::88                      0                       # What write queue length does an incoming req see
system.mem_ctrls.wrQLenPdf::89                      0                       # What write queue length does an incoming req see
system.mem_ctrls.wrQLenPdf::90                      0                       # What write queue length does an incoming req see
system.mem_ctrls.wrQLenPdf::91                      0                       # What write queue length does an incoming req see
system.mem_ctrls.wrQLenPdf::92                      0                       # What write queue length does an incoming req see
system.mem_ctrls.wrQLenPdf::93                      0                       # What write queue length does an incoming req see
system.mem_ctrls.wrQLenPdf::94                      0                       # What write queue length does an incoming req see
system.mem_ctrls.wrQLenPdf::95                      0                       # What write queue length does an incoming req see
system.mem_ctrls.wrQLenPdf::96                      0                       # What write queue length does an incoming req see
system.mem_ctrls.wrQLenPdf::97                      0                       # What write queue length does an incoming req see
system.mem_ctrls.wrQLenPdf::98                      0                       # What write queue length does an incoming req see
system.mem_ctrls.wrQLenPdf::99                      0                       # What write queue length does an incoming req see
system.mem_ctrls.wrQLenPdf::100                     0                       # What write queue length does an incoming req see
system.mem_ctrls.wrQLenPdf::101                     0                       # What write queue length does an incoming req see
system.mem_ctrls.wrQLenPdf::102                     0                       # What write queue length does an incoming req see
system.mem_ctrls.wrQLenPdf::103                     0                       # What write queue length does an incoming req see
system.mem_ctrls.wrQLenPdf::104                     0                       # What write queue length does an incoming req see
system.mem_ctrls.wrQLenPdf::105                     0                       # What write queue length does an incoming req see
system.mem_ctrls.wrQLenPdf::106                     0                       # What write queue length does an incoming req see
system.mem_ctrls.wrQLenPdf::107                     0                       # What write queue length does an incoming req see
system.mem_ctrls.wrQLenPdf::108                     0                       # What write queue length does an incoming req see
system.mem_ctrls.wrQLenPdf::109                     0                       # What write queue length does an incoming req see
system.mem_ctrls.wrQLenPdf::110                     0                       # What write queue length does an incoming req see
system.mem_ctrls.wrQLenPdf::111                     0                       # What write queue length does an incoming req see
system.mem_ctrls.wrQLenPdf::112                     0                       # What write queue length does an incoming req see
system.mem_ctrls.wrQLenPdf::113                     0                       # What write queue length does an incoming req see
system.mem_ctrls.wrQLenPdf::114                     0                       # What write queue length does an incoming req see
system.mem_ctrls.wrQLenPdf::115                     0                       # What write queue length does an incoming req see
system.mem_ctrls.wrQLenPdf::116                     0                       # What write queue length does an incoming req see
system.mem_ctrls.wrQLenPdf::117                     0                       # What write queue length does an incoming req see
system.mem_ctrls.wrQLenPdf::118                     0                       # What write queue length does an incoming req see
system.mem_ctrls.wrQLenPdf::119                     0                       # What write queue length does an incoming req see
system.mem_ctrls.wrQLenPdf::120                     0                       # What write queue length does an incoming req see
system.mem_ctrls.wrQLenPdf::121                     0                       # What write queue length does an incoming req see
system.mem_ctrls.wrQLenPdf::122                     0                       # What write queue length does an incoming req see
system.mem_ctrls.wrQLenPdf::123                     0                       # What write queue length does an incoming req see
system.mem_ctrls.wrQLenPdf::124                     0                       # What write queue length does an incoming req see
system.mem_ctrls.wrQLenPdf::125                     0                       # What write queue length does an incoming req see
system.mem_ctrls.wrQLenPdf::126                     0                       # What write queue length does an incoming req see
system.mem_ctrls.wrQLenPdf::127                     0                       # What write queue length does an incoming req see
system.mem_ctrls.bytesPerActivate::samples           90                       # Bytes accessed per row activation
system.mem_ctrls.bytesPerActivate::mean    386.133333                       # Bytes accessed per row activation
system.mem_ctrls.bytesPerActivate::gmean   257.998858                       # Bytes accessed per row activation
system.mem_ctrls.bytesPerActivate::stdev   330.325111                       # Bytes accessed per row activation
system.mem_ctrls.bytesPerActivate::0-127           18     20.00%     20.00% # Bytes accessed per row activation
system.mem_ctrls.bytesPerActivate::128-255           21     23.33%     43.33% # Bytes accessed per row activation
system.mem_ctrls.bytesPerActivate::256-383           17     18.89%     62.22% # Bytes accessed per row activation
system.mem_ctrls.bytesPerActivate::384-511            8      8.89%     71.11% # Bytes accessed per row activation
system.mem_ctrls.bytesPerActivate::512-639            5      5.56%     76.67% # Bytes accessed per row activation
system.mem_ctrls.bytesPerActivate::640-767            4      4.44%     81.11% # Bytes accessed per row activation
system.mem_ctrls.bytesPerActivate::768-895            2      2.22%     83.33% # Bytes accessed per row activation
system.mem_ctrls.bytesPerActivate::896-1023            3      3.33%     86.67% # Bytes accessed per row activation
system.mem_ctrls.bytesPerActivate::1024-1151           12     13.33%    100.00% # Bytes accessed per row activation
system.mem_ctrls.bytesPerActivate::total           90                       # Bytes accessed per row activation
system.mem_ctrls.rdPerTurnAround::samples            2                       # Reads before turning the bus around for writes
system.mem_ctrls.rdPerTurnAround::mean            268                       # Reads before turning the bus around for writes
system.mem_ctrls.rdPerTurnAround::gmean    142.460521                       # Reads before turning the bus around for writes
system.mem_ctrls.rdPerTurnAround::stdev    321.026479                       # Reads before turning the bus around for writes
system.mem_ctrls.rdPerTurnAround::40-47             1     50.00%     50.00% # Reads before turning the bus around for writes
system.mem_ctrls.rdPerTurnAround::488-495            1     50.00%    100.00% # Reads before turning the bus around for writes
system.mem_ctrls.rdPerTurnAround::total             2                       # Reads before turning the bus around for writes
system.mem_ctrls.wrPerTurnAround::samples            2                       # Writes before turning the bus around for reads
system.mem_ctrls.wrPerTurnAround::mean             16                       # Writes before turning the bus around for reads
system.mem_ctrls.wrPerTurnAround::gmean     16.000000                       # Writes before turning the bus around for reads
system.mem_ctrls.wrPerTurnAround::16                2    100.00%    100.00% # Writes before turning the bus around for reads
system.mem_ctrls.wrPerTurnAround::total             2                       # Writes before turning the bus around for reads
system.mem_ctrls.bytesReadDRAM                  36864                       # Total number of bytes read from DRAM
system.mem_ctrls.bytesReadWrQ                    1344                       # Total number of bytes read from write queue
system.mem_ctrls.bytesWritten                    2048                       # Total number of bytes written to DRAM
system.mem_ctrls.bytesReadSys                   38208                       # Total read bytes from the system interface side
system.mem_ctrls.bytesWrittenSys                 6016                       # Total written bytes from the system interface side
system.mem_ctrls.avgRdBW                       201.15                       # Average DRAM read bandwidth in MiByte/s
system.mem_ctrls.avgWrBW                        11.18                       # Average achieved write bandwidth in MiByte/s
system.mem_ctrls.avgRdBWSys                    208.49                       # Average system read bandwidth in MiByte/s
system.mem_ctrls.avgWrBWSys                     32.83                       # Average system write bandwidth in MiByte/s
system.mem_ctrls.peakBW                      19207.00                       # Theoretical peak bandwidth in MiByte/s
system.mem_ctrls.busUtil                         1.11                       # Data bus utilization in percentage
system.mem_ctrls.busUtilRead                     1.05                       # Data bus utilization in percentage for reads
system.mem_ctrls.busUtilWrite                    0.06                       # Data bus utilization in percentage for writes
system.mem_ctrls.totGap                     183204500                       # Total gap between requests
system.mem_ctrls.avgGap                     265129.52                       # Average gap between requests
system.mem_ctrls.masterReadBytes::.cpu.inst        25408                       # Per-master bytes read from memory
system.mem_ctrls.masterReadBytes::.cpu.data        11456                       # Per-master bytes read from memory
system.mem_ctrls.masterWriteBytes::.writebacks         2048                       # Per-master bytes write to memory
system.mem_ctrls.masterReadRate::.cpu.inst 138643035.653872579336                       # Per-master bytes read from memory rate (Bytes/sec)
system.mem_ctrls.masterReadRate::.cpu.data 62511595.420763716102                       # Per-master bytes read from memory rate (Bytes/sec)
system.mem_ctrls.masterWriteRate::.writebacks 11175257.281924238428                       # Per-master bytes write to memory rate (Bytes/sec)
system.mem_ctrls.masterReadAccesses::.cpu.inst          417                       # Per-master read serviced memory accesses
system.mem_ctrls.masterReadAccesses::.cpu.data          180                       # Per-master read serviced memory accesses
system.mem_ctrls.masterWriteAccesses::.writebacks           94                       # Per-master write serviced memory accesses
system.mem_ctrls.masterReadTotalLat::.cpu.inst      9076024                       # Per-master read total memory access latency
system.mem_ctrls.masterReadTotalLat::.cpu.data      3972662                       # Per-master read total memory access latency
system.mem_ctrls.masterWriteTotalLat::.writebacks   2360432408                       # Per-master write total memory access latency
system.mem_ctrls.masterReadAvgLat::.cpu.inst     21765.05                       # Per-master read average memory access latency
system.mem_ctrls.masterReadAvgLat::.cpu.data     22070.34                       # Per-master read average memory access latency
system.mem_ctrls.masterWriteAvgLat::.writebacks  25110983.06                       # Per-master write average memory access latency
system.mem_ctrls.pageHitRate                    75.94                       # Row buffer hit rate, read and write combined
system.mem_ctrls.rank1.actEnergy         38984.400000                       # Energy for activate commands per rank (pJ)
system.mem_ctrls.rank1.preEnergy         60563.764800                       # Energy for precharge commands per rank (pJ)
system.mem_ctrls.rank1.readEnergy        274290.240000                       # Energy for read commands per rank (pJ)
system.mem_ctrls.rank1.writeEnergy                  0                       # Energy for write commands per rank (pJ)
system.mem_ctrls.rank1.refreshEnergy     15544677.640800                       # Energy for refresh commands per rank (pJ)
system.mem_ctrls.rank1.actBackEnergy     17484633.348000                       # Energy for active background per rank (pJ)
system.mem_ctrls.rank1.preBackEnergy     47746269.849600                       # Energy for precharge background per rank (pJ)
system.mem_ctrls.rank1.actPowerDownEnergy            0                       # Energy for active power-down per rank (pJ)
system.mem_ctrls.rank1.prePowerDownEnergy            0                       # Energy for precharge power-down per rank (pJ)
system.mem_ctrls.rank1.selfRefreshEnergy            0                       # Energy for self refresh per rank (pJ)
system.mem_ctrls.rank1.totalEnergy       81149419.243200                       # Total energy per rank (pJ)
system.mem_ctrls.rank1.averagePower        442.805487                       # Core power per rank (mW)
system.mem_ctrls.rank1.totalIdleTime                0                       # Total Idle time Per DRAM Rank
system.mem_ctrls.rank1.memoryStateTime::IDLE    145914500                       # Time in different power states
system.mem_ctrls.rank1.memoryStateTime::REF      8050000                       # Time in different power states
system.mem_ctrls.rank1.memoryStateTime::SREF            0                       # Time in different power states
system.mem_ctrls.rank1.memoryStateTime::PRE_PDN            0                       # Time in different power states
system.mem_ctrls.rank1.memoryStateTime::ACT     29297500                       # Time in different power states
system.mem_ctrls.rank1.memoryStateTime::ACT_PDN            0                       # Time in different power states
system.mem_ctrls.rank0.actEnergy         121631.328000                       # Energy for activate commands per rank (pJ)
system.mem_ctrls.rank0.preEnergy         187197.091200                       # Energy for precharge commands per rank (pJ)
system.mem_ctrls.rank0.readEnergy        1305621.542400                       # Energy for read commands per rank (pJ)
system.mem_ctrls.rank0.writeEnergy       75489.792000                       # Energy for write commands per rank (pJ)
system.mem_ctrls.rank0.refreshEnergy     15544677.640800                       # Energy for refresh commands per rank (pJ)
system.mem_ctrls.rank0.actBackEnergy     19175004.928800                       # Energy for active background per rank (pJ)
system.mem_ctrls.rank0.preBackEnergy     46579312.819200                       # Energy for precharge background per rank (pJ)
system.mem_ctrls.rank0.actPowerDownEnergy            0                       # Energy for active power-down per rank (pJ)
system.mem_ctrls.rank0.prePowerDownEnergy            0                       # Energy for precharge power-down per rank (pJ)
system.mem_ctrls.rank0.selfRefreshEnergy            0                       # Energy for self refresh per rank (pJ)
system.mem_ctrls.rank0.totalEnergy       82988935.142400                       # Total energy per rank (pJ)
system.mem_ctrls.rank0.averagePower        452.843116                       # Core power per rank (mW)
system.mem_ctrls.rank0.totalIdleTime                0                       # Total Idle time Per DRAM Rank
system.mem_ctrls.rank0.memoryStateTime::IDLE    142339820                       # Time in different power states
system.mem_ctrls.rank0.memoryStateTime::REF      8050000                       # Time in different power states
system.mem_ctrls.rank0.memoryStateTime::SREF            0                       # Time in different power states
system.mem_ctrls.rank0.memoryStateTime::PRE_PDN            0                       # Time in different power states
system.mem_ctrls.rank0.memoryStateTime::ACT     32872180                       # Time in different power states
system.mem_ctrls.rank0.memoryStateTime::ACT_PDN            0                       # Time in different power states
system.cpu_clk_domain.clock                       500                       # Clock period in ticks
system.cpu.pwrStateResidencyTicks::ON       183262000                       # Cumulative time (in ticks) in various power states
system.cpu.icache.pwrStateResidencyTicks::UNDEFINED    183262000                       # Cumulative time (in ticks) in various power states
system.cpu.icache.demand_hits::.cpu.inst        43281                       # number of demand (read+write) hits
system.cpu.icache.demand_hits::total            43281                       # number of demand (read+write) hits
[...]
system.cpu.icache.ReadReq_miss_rate::total     0.009543                       # miss rate for ReadReq accesses
system.cpu.icache.ReadReq_avg_miss_latency::.cpu.inst 54248.201439                       # average ReadReq miss latency
system.cpu.icache.ReadReq_avg_miss_latency::total 54248.201439                       # average ReadReq miss latency
system.cpu.icache.ReadReq_mshr_misses::.cpu.inst          417                       # number of ReadReq MSHR misses
system.cpu.icache.ReadReq_mshr_misses::total          417                       # number of ReadReq MSHR misses
system.cpu.icache.ReadReq_mshr_miss_latency::.cpu.inst     22204500                       # number of ReadReq MSHR miss cycles
system.cpu.icache.ReadReq_mshr_miss_latency::total     22204500                       # number of ReadReq MSHR miss cycles
system.cpu.icache.ReadReq_mshr_miss_rate::.cpu.inst     0.009543                       # mshr miss rate for ReadReq accesses
system.cpu.icache.ReadReq_mshr_miss_rate::total     0.009543                       # mshr miss rate for ReadReq accesses
system.cpu.icache.ReadReq_avg_mshr_miss_latency::.cpu.inst 53248.201439                       # average ReadReq mshr miss latency
system.cpu.icache.ReadReq_avg_mshr_miss_latency::total 53248.201439                       # average ReadReq mshr miss latency
system.cpu.icache.tags.pwrStateResidencyTicks::UNDEFINED    183262000                       # Cumulative time (in ticks) in various power states
system.cpu.icache.tags.tagsinuse           217.936823                       # Cycle average of tags in use
system.cpu.icache.tags.total_refs               43698                       # Total number of references to valid blocks.
system.cpu.icache.tags.sampled_refs               417                       # Sample count of references to valid blocks.
system.cpu.icache.tags.avg_refs            104.791367                       # Average number of references to valid blocks.
system.cpu.icache.tags.warmup_cycle             77000                       # Cycle when the warmup percentage was hit.
system.cpu.icache.tags.occ_blocks::.cpu.inst   217.936823                       # Average occupied blocks per requestor
system.cpu.icache.tags.occ_percent::.cpu.inst     0.425658                       # Average percentage of cache occupancy
system.cpu.icache.tags.occ_percent::total     0.425658                       # Average percentage of cache occupancy
system.cpu.icache.tags.occ_task_id_blocks::1024          318                       # Occupied blocks per task id
system.cpu.icache.tags.age_task_id_blocks_1024::0          137                       # Occupied blocks per task id
system.cpu.icache.tags.age_task_id_blocks_1024::1           11                       # Occupied blocks per task id
system.cpu.icache.tags.age_task_id_blocks_1024::2          170                       # Occupied blocks per task id
system.cpu.icache.tags.occ_task_id_percent::1024     0.621094                       # Percentage of cache occupancy per task id
system.cpu.icache.tags.tag_accesses             87813                       # Number of tag accesses
system.cpu.icache.tags.data_accesses            87813                       # Number of data accesses
system.cpu.dtb.walker.pwrStateResidencyTicks::UNDEFINED    183262000                       # Cumulative time (in ticks) in various power states
system.cpu.dtb.stage2_mmu.stage2_tlb.walker.pwrStateResidencyTicks::UNDEFINED    183262000                       # Cumulative time (in ticks) in various power states
system.cpu.dcache.pwrStateResidencyTicks::UNDEFINED    183262000                       # Cumulative time (in ticks) in various power states
system.cpu.dcache.demand_hits::.cpu.data       122989                       # number of demand (read+write) hits
system.cpu.dcache.demand_hits::total           122989                       # number of demand (read+write) hits
system.cpu.dcache.overall_hits::.cpu.data       123010                       # number of overall hits
system.cpu.dcache.overall_hits::total          123010                       # number of overall hits
system.cpu.dcache.demand_misses::.cpu.data          226                       # number of demand (read+write) misses
system.cpu.dcache.demand_misses::total            226                       # number of demand (read+write) misses
system.cpu.dcache.overall_misses::.cpu.data          235                       # number of overall misses
system.cpu.dcache.overall_misses::total           235                       # number of overall misses
system.cpu.dcache.demand_miss_latency::.cpu.data     12296000                       # number of demand (read+write) miss cycles
system.cpu.dcache.demand_miss_latency::total     12296000                       # number of demand (read+write) miss cycles
system.cpu.dcache.overall_miss_latency::.cpu.data     12296000                       # number of overall miss cycles
system.cpu.dcache.overall_miss_latency::total     12296000                       # number of overall miss cycles
system.cpu.dcache.demand_accesses::.cpu.data       123215                       # number of demand (read+write) accesses
system.cpu.dcache.demand_accesses::total       123215                       # number of demand (read+write) accesses
system.cpu.dcache.overall_accesses::.cpu.data       123245                       # number of overall (read+write) accesses
system.cpu.dcache.overall_accesses::total       123245                       # number of overall (read+write) accesses
system.cpu.dcache.demand_miss_rate::.cpu.data     0.001834                       # miss rate for demand accesses
system.cpu.dcache.demand_miss_rate::total     0.001834                       # miss rate for demand accesses
system.cpu.dcache.overall_miss_rate::.cpu.data     0.001907                       # miss rate for overall accesses
system.cpu.dcache.overall_miss_rate::total     0.001907                       # miss rate for overall accesses
system.cpu.dcache.demand_avg_miss_latency::.cpu.data 54407.079646                       # average overall miss latency
system.cpu.dcache.demand_avg_miss_latency::total 54407.079646                       # average overall miss latency
system.cpu.dcache.overall_avg_miss_latency::.cpu.data 52323.404255                       # average overall miss latency
system.cpu.dcache.overall_avg_miss_latency::total 52323.404255                       # average overall miss latency
system.cpu.dcache.blocked_cycles::no_mshrs            0                       # number of cycles access was blocked
system.cpu.dcache.blocked_cycles::no_targets            0                       # number of cycles access was blocked
system.cpu.dcache.blocked::no_mshrs                 0                       # number of cycles access was blocked
system.cpu.dcache.blocked::no_targets               0                       # number of cycles access was blocked
system.cpu.dcache.avg_blocked_cycles::no_mshrs          nan                       # average number of cycles each access was blocked
system.cpu.dcache.avg_blocked_cycles::no_targets          nan                       # average number of cycles each access was blocked
system.cpu.dcache.demand_mshr_hits::.cpu.data           53                       # number of demand (read+write) MSHR hits
system.cpu.dcache.demand_mshr_hits::total           53                       # number of demand (read+write) MSHR hits
system.cpu.dcache.overall_mshr_hits::.cpu.data           53                       # number of overall MSHR hits
system.cpu.dcache.overall_mshr_hits::total           53                       # number of overall MSHR hits
system.cpu.dcache.demand_mshr_misses::.cpu.data          173                       # number of demand (read+write) MSHR misses
system.cpu.dcache.demand_mshr_misses::total          173                       # number of demand (read+write) MSHR misses
system.cpu.dcache.overall_mshr_misses::.cpu.data          180                       # number of overall MSHR misses
system.cpu.dcache.overall_mshr_misses::total          180                       # number of overall MSHR misses
system.cpu.dcache.demand_mshr_miss_latency::.cpu.data      9300500                       # number of demand (read+write) MSHR miss cycles
system.cpu.dcache.demand_mshr_miss_latency::total      9300500                       # number of demand (read+write) MSHR miss cycles
system.cpu.dcache.overall_mshr_miss_latency::.cpu.data      9706500                       # number of overall MSHR miss cycles
system.cpu.dcache.overall_mshr_miss_latency::total      9706500                       # number of overall MSHR miss cycles
system.cpu.dcache.demand_mshr_miss_rate::.cpu.data     0.001404                       # mshr miss rate for demand accesses
system.cpu.dcache.demand_mshr_miss_rate::total     0.001404                       # mshr miss rate for demand accesses
system.cpu.dcache.overall_mshr_miss_rate::.cpu.data     0.001461                       # mshr miss rate for overall accesses
system.cpu.dcache.overall_mshr_miss_rate::total     0.001461                       # mshr miss rate for overall accesses
system.cpu.dcache.demand_avg_mshr_miss_latency::.cpu.data 53760.115607                       # average overall mshr miss latency
system.cpu.dcache.demand_avg_mshr_miss_latency::total 53760.115607                       # average overall mshr miss latency
system.cpu.dcache.overall_avg_mshr_miss_latency::.cpu.data        53925                       # average overall mshr miss latency
system.cpu.dcache.overall_avg_mshr_miss_latency::total        53925                       # average overall mshr miss latency
system.cpu.dcache.replacements                      1                       # number of replacements
system.cpu.dcache.ReadReq_hits::.cpu.data       101556                       # number of ReadReq hits
system.cpu.dcache.ReadReq_hits::total          101556                       # number of ReadReq hits
system.cpu.dcache.ReadReq_misses::.cpu.data          107                       # number of ReadReq misses
system.cpu.dcache.ReadReq_misses::total           107                       # number of ReadReq misses
system.cpu.dcache.ReadReq_miss_latency::.cpu.data      5799500                       # number of ReadReq miss cycles
system.cpu.dcache.ReadReq_miss_latency::total      5799500                       # number of ReadReq miss cycles
system.cpu.dcache.ReadReq_accesses::.cpu.data       101663                       # number of ReadReq accesses(hits+misses)
system.cpu.dcache.ReadReq_accesses::total       101663                       # number of ReadReq accesses(hits+misses)
system.cpu.dcache.ReadReq_miss_rate::.cpu.data     0.001052                       # miss rate for ReadReq accesses
system.cpu.dcache.ReadReq_miss_rate::total     0.001052                       # miss rate for ReadReq accesses
system.cpu.dcache.ReadReq_avg_miss_latency::.cpu.data 54200.934579                       # average ReadReq miss latency
system.cpu.dcache.ReadReq_avg_miss_latency::total 54200.934579                       # average ReadReq miss latency
system.cpu.dcache.ReadReq_mshr_hits::.cpu.data            5                       # number of ReadReq MSHR hits
system.cpu.dcache.ReadReq_mshr_hits::total            5                       # number of ReadReq MSHR hits
system.cpu.dcache.ReadReq_mshr_misses::.cpu.data          102                       # number of ReadReq MSHR misses
system.cpu.dcache.ReadReq_mshr_misses::total          102                       # number of ReadReq MSHR misses
system.cpu.dcache.ReadReq_mshr_miss_latency::.cpu.data      5473500                       # number of ReadReq MSHR miss cycles
system.cpu.dcache.ReadReq_mshr_miss_latency::total      5473500                       # number of ReadReq MSHR miss cycles
system.cpu.dcache.ReadReq_mshr_miss_rate::.cpu.data     0.001003                       # mshr miss rate for ReadReq accesses
system.cpu.dcache.ReadReq_mshr_miss_rate::total     0.001003                       # mshr miss rate for ReadReq accesses
system.cpu.dcache.ReadReq_avg_mshr_miss_latency::.cpu.data 53661.764706                       # average ReadReq mshr miss latency
system.cpu.dcache.ReadReq_avg_mshr_miss_latency::total 53661.764706                       # average ReadReq mshr miss latency
system.cpu.dcache.WriteReq_hits::.cpu.data        21433                       # number of WriteReq hits
system.cpu.dcache.WriteReq_hits::total          21433                       # number of WriteReq hits
system.cpu.dcache.WriteReq_misses::.cpu.data          119                       # number of WriteReq misses
system.cpu.dcache.WriteReq_misses::total          119                       # number of WriteReq misses
system.cpu.dcache.WriteReq_miss_latency::.cpu.data      6496500                       # number of WriteReq miss cycles
system.cpu.dcache.WriteReq_miss_latency::total      6496500                       # number of WriteReq miss cycles
system.cpu.dcache.WriteReq_accesses::.cpu.data        21552                       # number of WriteReq accesses(hits+misses)
system.cpu.dcache.WriteReq_accesses::total        21552                       # number of WriteReq accesses(hits+misses)
system.cpu.dcache.WriteReq_miss_rate::.cpu.data     0.005522                       # miss rate for WriteReq accesses
system.cpu.dcache.WriteReq_miss_rate::total     0.005522                       # miss rate for WriteReq accesses
system.cpu.dcache.WriteReq_avg_miss_latency::.cpu.data 54592.436975                       # average WriteReq miss latency
system.cpu.dcache.WriteReq_avg_miss_latency::total 54592.436975                       # average WriteReq miss latency
system.cpu.dcache.WriteReq_mshr_hits::.cpu.data           48                       # number of WriteReq MSHR hits
system.cpu.dcache.WriteReq_mshr_hits::total           48                       # number of WriteReq MSHR hits
system.cpu.dcache.WriteReq_mshr_misses::.cpu.data           71                       # number of WriteReq MSHR misses
system.cpu.dcache.WriteReq_mshr_misses::total           71                       # number of WriteReq MSHR misses
system.cpu.dcache.WriteReq_mshr_miss_latency::.cpu.data      3827000                       # number of WriteReq MSHR miss cycles
system.cpu.dcache.WriteReq_mshr_miss_latency::total      3827000                       # number of WriteReq MSHR miss cycles
system.cpu.dcache.WriteReq_mshr_miss_rate::.cpu.data     0.003294                       # mshr miss rate for WriteReq accesses
system.cpu.dcache.WriteReq_mshr_miss_rate::total     0.003294                       # mshr miss rate for WriteReq accesses
system.cpu.dcache.WriteReq_avg_mshr_miss_latency::.cpu.data 53901.408451                       # average WriteReq mshr miss latency
system.cpu.dcache.WriteReq_avg_mshr_miss_latency::total 53901.408451                       # average WriteReq mshr miss latency
system.cpu.dcache.SoftPFReq_hits::.cpu.data           21                       # number of SoftPFReq hits
system.cpu.dcache.SoftPFReq_hits::total            21                       # number of SoftPFReq hits
system.cpu.dcache.SoftPFReq_misses::.cpu.data            9                       # number of SoftPFReq misses
system.cpu.dcache.SoftPFReq_misses::total            9                       # number of SoftPFReq misses
system.cpu.dcache.SoftPFReq_accesses::.cpu.data           30                       # number of SoftPFReq accesses(hits+misses)
system.cpu.dcache.SoftPFReq_accesses::total           30                       # number of SoftPFReq accesses(hits+misses)
system.cpu.dcache.SoftPFReq_miss_rate::.cpu.data     0.300000                       # miss rate for SoftPFReq accesses
system.cpu.dcache.SoftPFReq_miss_rate::total     0.300000                       # miss rate for SoftPFReq accesses
system.cpu.dcache.SoftPFReq_mshr_misses::.cpu.data            7                       # number of SoftPFReq MSHR misses
system.cpu.dcache.SoftPFReq_mshr_misses::total            7                       # number of SoftPFReq MSHR misses
system.cpu.dcache.SoftPFReq_mshr_miss_latency::.cpu.data       406000                       # number of SoftPFReq MSHR miss cycles
system.cpu.dcache.SoftPFReq_mshr_miss_latency::total       406000                       # number of SoftPFReq MSHR miss cycles
system.cpu.dcache.SoftPFReq_mshr_miss_rate::.cpu.data     0.233333                       # mshr miss rate for SoftPFReq accesses
system.cpu.dcache.SoftPFReq_mshr_miss_rate::total     0.233333                       # mshr miss rate for SoftPFReq accesses
system.cpu.dcache.SoftPFReq_avg_mshr_miss_latency::.cpu.data        58000                       # average SoftPFReq mshr miss latency
system.cpu.dcache.SoftPFReq_avg_mshr_miss_latency::total        58000                       # average SoftPFReq mshr miss latency
system.cpu.dcache.LoadLockedReq_hits::.cpu.data           18                       # number of LoadLockedReq hits
system.cpu.dcache.LoadLockedReq_hits::total           18                       # number of LoadLockedReq hits
system.cpu.dcache.LoadLockedReq_accesses::.cpu.data           18                       # number of LoadLockedReq accesses(hits+misses)
system.cpu.dcache.LoadLockedReq_accesses::total           18                       # number of LoadLockedReq accesses(hits+misses)
system.cpu.dcache.StoreCondReq_hits::.cpu.data           18                       # number of StoreCondReq hits
system.cpu.dcache.StoreCondReq_hits::total           18                       # number of StoreCondReq hits
system.cpu.dcache.StoreCondReq_accesses::.cpu.data           18                       # number of StoreCondReq accesses(hits+misses)
system.cpu.dcache.StoreCondReq_accesses::total           18                       # number of StoreCondReq accesses(hits+misses)
system.cpu.dcache.tags.pwrStateResidencyTicks::UNDEFINED    183262000                       # Cumulative time (in ticks) in various power states
system.cpu.dcache.tags.tagsinuse           129.026629                       # Cycle average of tags in use
system.cpu.dcache.tags.total_refs              123226                       # Total number of references to valid blocks.
system.cpu.dcache.tags.sampled_refs               180                       # Sample count of references to valid blocks.
system.cpu.dcache.tags.avg_refs            684.588889                       # Average number of references to valid blocks.
system.cpu.dcache.tags.warmup_cycle            144000                       # Cycle when the warmup percentage was hit.
system.cpu.dcache.tags.occ_blocks::.cpu.data   129.026629                       # Average occupied blocks per requestor
system.cpu.dcache.tags.occ_percent::.cpu.data     0.126003                       # Average percentage of cache occupancy
system.cpu.dcache.tags.occ_percent::total     0.126003                       # Average percentage of cache occupancy
system.cpu.dcache.tags.occ_task_id_blocks::1024          179                       # Occupied blocks per task id
system.cpu.dcache.tags.age_task_id_blocks_1024::0           36                       # Occupied blocks per task id
system.cpu.dcache.tags.age_task_id_blocks_1024::1            8                       # Occupied blocks per task id
system.cpu.dcache.tags.age_task_id_blocks_1024::2          135                       # Occupied blocks per task id
system.cpu.dcache.tags.occ_task_id_percent::1024     0.174805                       # Percentage of cache occupancy per task id
system.cpu.dcache.tags.tag_accesses            246742                       # Number of tag accesses
system.cpu.dcache.tags.data_accesses           246742                       # Number of data accesses
system.cpu.itb.walker.pwrStateResidencyTicks::UNDEFINED    183262000                       # Cumulative time (in ticks) in various power states
system.cpu.itb.stage2_mmu.stage2_tlb.walker.pwrStateResidencyTicks::UNDEFINED    183262000                       # Cumulative time (in ticks) in various power states

---------- End Simulation Statistics   ----------
