
---------- Begin Simulation Statistics ----------
final_tick                                95131811500                       # Number of ticks from beginning of simulation (restored from checkpoints and never reset)
host_inst_rate                                 362791                       # Simulator instruction rate (inst/s)
host_mem_usage                                 692076                       # Number of bytes of host memory used
host_op_rate                                   363503                       # Simulator op (including micro ops) rate (op/s)
host_seconds                                   275.64                       # Real time elapsed on the host
host_tick_rate                              345129415                       # Simulator tick rate (ticks/s)
sim_freq                                 1000000000000                       # Frequency of simulated ticks
sim_insts                                   100000001                       # Number of instructions simulated
sim_ops                                     100196363                       # Number of ops (including micro ops) simulated
sim_seconds                                  0.095132                       # Number of seconds simulated
sim_ticks                                 95131811500                       # Number of ticks simulated
system.cpu.branchPred.BTBCorrect                    0                       # Number of correct BTB predictions (this stat may not work properly.
system.cpu.branchPred.BTBHitPct             99.708430                       # BTB Hit Percentage
system.cpu.branchPred.BTBHits                 2093543                       # Number of BTB hits
system.cpu.branchPred.BTBLookups              2099665                       # Number of BTB lookups
system.cpu.branchPred.RASInCorrect                  5                       # Number of incorrect RAS predictions.
system.cpu.branchPred.condIncorrect             81339                       # Number of conditional branches incorrect
system.cpu.branchPred.condPredicted           3725339                       # Number of conditional branches predicted
system.cpu.branchPred.indirectHits                292                       # Number of indirect target hits.
system.cpu.branchPred.indirectLookups             791                       # Number of indirect predictor lookups.
system.cpu.branchPred.indirectMisses              499                       # Number of indirect misses.
system.cpu.branchPred.lookups                 4475042                       # Number of BP lookups
system.cpu.branchPred.usedRAS                   65321                       # Number of times the RAS was used to get a target.
system.cpu.branchPredindirectMispredicted          171                       # Number of mispredicted indirect branches.
system.cpu.committedInsts                   100000001                       # Number of instructions committed
system.cpu.committedOps                     100196363                       # Number of ops (including micro ops) committed
system.cpu.cpi                               1.902636                       # CPI: cycles per instruction
system.cpu.discardedOps                        190513                       # Number of ops (including micro ops) which were discarded before commit
system.cpu.dtb.accesses                             0                       # DTB accesses
system.cpu.dtb.align_faults                         0                       # Number of TLB faults due to alignment restrictions
system.cpu.dtb.domain_faults                        0                       # Number of TLB faults due to domain restrictions
system.cpu.dtb.flush_entries                        0                       # Number of entries that have been flushed from TLB
system.cpu.dtb.flush_tlb                            0                       # Number of times complete TLB was flushed
system.cpu.dtb.flush_tlb_asid                       0                       # Number of times TLB was flushed by ASID
system.cpu.dtb.flush_tlb_mva                        0                       # Number of times TLB was flushed by MVA
system.cpu.dtb.flush_tlb_mva_asid                   0                       # Number of times TLB was flushed by MVA & ASID
system.cpu.dtb.hits                                 0                       # DTB hits
system.cpu.dtb.inst_accesses                        0                       # ITB inst accesses
system.cpu.dtb.inst_hits                            0                       # ITB inst hits
system.cpu.dtb.inst_misses                          0                       # ITB inst misses
system.cpu.dtb.misses                               0                       # DTB misses
system.cpu.dtb.perms_faults                         0                       # Number of TLB faults due to permissions restrictions
system.cpu.dtb.prefetch_faults                      0                       # Number of TLB faults due to prefetch
system.cpu.dtb.read_accesses                        0                       # DTB read accesses
system.cpu.dtb.read_hits                            0                       # DTB read hits
system.cpu.dtb.read_misses                          0                       # DTB read misses
system.cpu.dtb.stage2_mmu.stage2_tlb.accesses            0                       # DTB accesses
system.cpu.dtb.stage2_mmu.stage2_tlb.align_faults            0                       # Number of TLB faults due to alignment restrictions
system.cpu.dtb.stage2_mmu.stage2_tlb.domain_faults            0                       # Number of TLB faults due to domain restrictions
system.cpu.dtb.stage2_mmu.stage2_tlb.flush_entries            0                       # Number of entries that have been flushed from TLB
system.cpu.dtb.stage2_mmu.stage2_tlb.flush_tlb            0                       # Number of times complete TLB was flushed
system.cpu.dtb.stage2_mmu.stage2_tlb.flush_tlb_asid            0                       # Number of times TLB was flushed by ASID
system.cpu.dtb.stage2_mmu.stage2_tlb.flush_tlb_mva            0                       # Number of times TLB was flushed by MVA
system.cpu.dtb.stage2_mmu.stage2_tlb.flush_tlb_mva_asid            0                       # Number of times TLB was flushed by MVA & ASID
system.cpu.dtb.stage2_mmu.stage2_tlb.hits            0                       # DTB hits
system.cpu.dtb.stage2_mmu.stage2_tlb.inst_accesses            0                       # ITB inst accesses
system.cpu.dtb.stage2_mmu.stage2_tlb.inst_hits            0                       # ITB inst hits
system.cpu.dtb.stage2_mmu.stage2_tlb.inst_misses            0                       # ITB inst misses
system.cpu.dtb.stage2_mmu.stage2_tlb.misses            0                       # DTB misses
system.cpu.dtb.stage2_mmu.stage2_tlb.perms_faults            0                       # Number of TLB faults due to permissions restrictions
system.cpu.dtb.stage2_mmu.stage2_tlb.prefetch_faults            0                       # Number of TLB faults due to prefetch
system.cpu.dtb.stage2_mmu.stage2_tlb.read_accesses            0                       # DTB read accesses
system.cpu.dtb.stage2_mmu.stage2_tlb.read_hits            0                       # DTB read hits
system.cpu.dtb.stage2_mmu.stage2_tlb.read_misses            0                       # DTB read misses
system.cpu.dtb.stage2_mmu.stage2_tlb.walker.walkRequestOrigin_Requested::Data            0                       # Table walker requests started/completed, data/inst
system.cpu.dtb.stage2_mmu.stage2_tlb.walker.walkRequestOrigin_Requested::Inst            0                       # Table walker requests started/completed, data/inst
system.cpu.dtb.stage2_mmu.stage2_tlb.walker.walkRequestOrigin_Requested::total            0                       # Table walker requests started/completed, data/inst
system.cpu.dtb.stage2_mmu.stage2_tlb.walker.walkRequestOrigin_Completed::Data            0                       # Table walker requests started/completed, data/inst
system.cpu.dtb.stage2_mmu.stage2_tlb.walker.walkRequestOrigin_Completed::Inst            0                       # Table walker requests started/completed, data/inst
system.cpu.dtb.stage2_mmu.stage2_tlb.walker.walkRequestOrigin_Completed::total            0                       # Table walker requests started/completed, data/inst
system.cpu.dtb.stage2_mmu.stage2_tlb.walker.walkRequestOrigin::total            0                       # Table walker requests started/completed, data/inst
system.cpu.dtb.stage2_mmu.stage2_tlb.walker.walks            0                       # Table walker walks requested
system.cpu.dtb.stage2_mmu.stage2_tlb.write_accesses            0                       # DTB write accesses
system.cpu.dtb.stage2_mmu.stage2_tlb.write_hits            0                       # DTB write hits
system.cpu.dtb.stage2_mmu.stage2_tlb.write_misses            0                       # DTB write misses
system.cpu.dtb.walker.walkRequestOrigin_Requested::Data            0                       # Table walker requests started/completed, data/inst
system.cpu.dtb.walker.walkRequestOrigin_Requested::Inst            0                       # Table walker requests started/completed, data/inst
system.cpu.dtb.walker.walkRequestOrigin_Requested::total            0                       # Table walker requests started/completed, data/inst
system.cpu.dtb.walker.walkRequestOrigin_Completed::Data            0                       # Table walker requests started/completed, data/inst
system.cpu.dtb.walker.walkRequestOrigin_Completed::Inst            0                       # Table walker requests started/completed, data/inst
system.cpu.dtb.walker.walkRequestOrigin_Completed::total            0                       # Table walker requests started/completed, data/inst
system.cpu.dtb.walker.walkRequestOrigin::total            0                       # Table walker requests started/completed, data/inst
system.cpu.dtb.walker.walks                         0                       # Table walker walks requested
system.cpu.dtb.write_accesses                       0                       # DTB write accesses
system.cpu.dtb.write_hits                           0                       # DTB write hits
system.cpu.dtb.write_misses                         0                       # DTB write misses
system.cpu.fetch2.amo_instructions                  0                       # Number of memory atomic instructions successfully decoded
system.cpu.fetch2.fp_instructions                   0                       # Number of floating point instructions successfully decoded
system.cpu.fetch2.int_instructions           42606831                       # Number of integer instructions successfully decoded
system.cpu.fetch2.load_instructions          43399539                       # Number of memory load instructions successfully decoded
system.cpu.fetch2.store_instructions         10999357                       # Number of memory store instructions successfully decoded
system.cpu.fetch2.vec_instructions                  0                       # Number of SIMD instructions successfully decoded
system.cpu.idleCycles                        56908546                       # Total number of cycles that the object has spent stopped
system.cpu.ipc                               0.525587                       # IPC: instructions per cycle
system.cpu.itb.accesses                             0                       # DTB accesses
system.cpu.itb.align_faults                         0                       # Number of TLB faults due to alignment restrictions
system.cpu.itb.domain_faults                        0                       # Number of TLB faults due to domain restrictions
system.cpu.itb.flush_entries                        0                       # Number of entries that have been flushed from TLB
system.cpu.itb.flush_tlb                            0                       # Number of times complete TLB was flushed
system.cpu.itb.flush_tlb_asid                       0                       # Number of times TLB was flushed by ASID
system.cpu.itb.flush_tlb_mva                        0                       # Number of times TLB was flushed by MVA
system.cpu.itb.flush_tlb_mva_asid                   0                       # Number of times TLB was flushed by MVA & ASID
system.cpu.itb.hits                                 0                       # DTB hits
system.cpu.itb.inst_accesses                        0                       # ITB inst accesses
system.cpu.itb.inst_hits                            0                       # ITB inst hits
system.cpu.itb.inst_misses                          0                       # ITB inst misses
system.cpu.itb.misses                               0                       # DTB misses
system.cpu.itb.perms_faults                         0                       # Number of TLB faults due to permissions restrictions
system.cpu.itb.prefetch_faults                      0                       # Number of TLB faults due to prefetch
system.cpu.itb.read_accesses                        0                       # DTB read accesses
system.cpu.itb.read_hits                            0                       # DTB read hits
system.cpu.itb.read_misses                          0                       # DTB read misses
system.cpu.itb.stage2_mmu.stage2_tlb.accesses            0                       # DTB accesses
system.cpu.itb.stage2_mmu.stage2_tlb.align_faults            0                       # Number of TLB faults due to alignment restrictions
system.cpu.itb.stage2_mmu.stage2_tlb.domain_faults            0                       # Number of TLB faults due to domain restrictions
system.cpu.itb.stage2_mmu.stage2_tlb.flush_entries            0                       # Number of entries that have been flushed from TLB
system.cpu.itb.stage2_mmu.stage2_tlb.flush_tlb            0                       # Number of times complete TLB was flushed
system.cpu.itb.stage2_mmu.stage2_tlb.flush_tlb_asid            0                       # Number of times TLB was flushed by ASID
system.cpu.itb.stage2_mmu.stage2_tlb.flush_tlb_mva            0                       # Number of times TLB was flushed by MVA
system.cpu.itb.stage2_mmu.stage2_tlb.flush_tlb_mva_asid            0                       # Number of times TLB was flushed by MVA & ASID
system.cpu.itb.stage2_mmu.stage2_tlb.hits            0                       # DTB hits
system.cpu.itb.stage2_mmu.stage2_tlb.inst_accesses            0                       # ITB inst accesses
system.cpu.itb.stage2_mmu.stage2_tlb.inst_hits            0                       # ITB inst hits
system.cpu.itb.stage2_mmu.stage2_tlb.inst_misses            0                       # ITB inst misses
system.cpu.itb.stage2_mmu.stage2_tlb.misses            0                       # DTB misses
system.cpu.itb.stage2_mmu.stage2_tlb.perms_faults            0                       # Number of TLB faults due to permissions restrictions
system.cpu.itb.stage2_mmu.stage2_tlb.prefetch_faults            0                       # Number of TLB faults due to prefetch
system.cpu.itb.stage2_mmu.stage2_tlb.read_accesses            0                       # DTB read accesses
system.cpu.itb.stage2_mmu.stage2_tlb.read_hits            0                       # DTB read hits
system.cpu.itb.stage2_mmu.stage2_tlb.read_misses            0                       # DTB read misses
system.cpu.itb.stage2_mmu.stage2_tlb.walker.walkRequestOrigin_Requested::Data            0                       # Table walker requests started/completed, data/inst
system.cpu.itb.stage2_mmu.stage2_tlb.walker.walkRequestOrigin_Requested::Inst            0                       # Table walker requests started/completed, data/inst
system.cpu.itb.stage2_mmu.stage2_tlb.walker.walkRequestOrigin_Requested::total            0                       # Table walker requests started/completed, data/inst
system.cpu.itb.stage2_mmu.stage2_tlb.walker.walkRequestOrigin_Completed::Data            0                       # Table walker requests started/completed, data/inst
system.cpu.itb.stage2_mmu.stage2_tlb.walker.walkRequestOrigin_Completed::Inst            0                       # Table walker requests started/completed, data/inst
system.cpu.itb.stage2_mmu.stage2_tlb.walker.walkRequestOrigin_Completed::total            0                       # Table walker requests started/completed, data/inst
system.cpu.itb.stage2_mmu.stage2_tlb.walker.walkRequestOrigin::total            0                       # Table walker requests started/completed, data/inst
system.cpu.itb.stage2_mmu.stage2_tlb.walker.walks            0                       # Table walker walks requested
system.cpu.itb.stage2_mmu.stage2_tlb.write_accesses            0                       # DTB write accesses
system.cpu.itb.stage2_mmu.stage2_tlb.write_hits            0                       # DTB write hits
system.cpu.itb.stage2_mmu.stage2_tlb.write_misses            0                       # DTB write misses
system.cpu.itb.walker.walkRequestOrigin_Requested::Data            0                       # Table walker requests started/completed, data/inst
system.cpu.itb.walker.walkRequestOrigin_Requested::Inst            0                       # Table walker requests started/completed, data/inst
system.cpu.itb.walker.walkRequestOrigin_Requested::total            0                       # Table walker requests started/completed, data/inst
system.cpu.itb.walker.walkRequestOrigin_Completed::Data            0                       # Table walker requests started/completed, data/inst
system.cpu.itb.walker.walkRequestOrigin_Completed::Inst            0                       # Table walker requests started/completed, data/inst
system.cpu.itb.walker.walkRequestOrigin_Completed::total            0                       # Table walker requests started/completed, data/inst
system.cpu.itb.walker.walkRequestOrigin::total            0                       # Table walker requests started/completed, data/inst
system.cpu.itb.walker.walks                         0                       # Table walker walks requested
system.cpu.itb.write_accesses                       0                       # DTB write accesses
system.cpu.itb.write_hits                           0                       # DTB write hits
system.cpu.itb.write_misses                         0                       # DTB write misses
system.cpu.numCycles                        190263623                       # number of cpu cycles simulated
system.cpu.numFetchSuspends                         0                       # Number of times Execute suspended instruction fetching
system.cpu.numWorkItemsCompleted                    0                       # number of work items this cpu completed
system.cpu.numWorkItemsStarted                      0                       # number of work items this cpu started
system.cpu.op_class_0::No_OpClass                   0      0.00%      0.00% # Class of committed instruction
system.cpu.op_class_0::IntAlu                46531400     46.44%     46.44% # Class of committed instruction
system.cpu.op_class_0::IntMult                  20720      0.02%     46.46% # Class of committed instruction
system.cpu.op_class_0::IntDiv                       0      0.00%     46.46% # Class of committed instruction
system.cpu.op_class_0::FloatAdd                     0      0.00%     46.46% # Class of committed instruction
system.cpu.op_class_0::FloatCmp                     0      0.00%     46.46% # Class of committed instruction
system.cpu.op_class_0::FloatCvt                     0      0.00%     46.46% # Class of committed instruction
system.cpu.op_class_0::FloatMult                    0      0.00%     46.46% # Class of committed instruction
system.cpu.op_class_0::FloatMultAcc                 0      0.00%     46.46% # Class of committed instruction
system.cpu.op_class_0::FloatDiv                     0      0.00%     46.46% # Class of committed instruction
system.cpu.op_class_0::FloatMisc                    0      0.00%     46.46% # Class of committed instruction
system.cpu.op_class_0::FloatSqrt                    0      0.00%     46.46% # Class of committed instruction
system.cpu.op_class_0::SimdAdd                      0      0.00%     46.46% # Class of committed instruction
system.cpu.op_class_0::SimdAddAcc                   0      0.00%     46.46% # Class of committed instruction
system.cpu.op_class_0::SimdAlu                      0      0.00%     46.46% # Class of committed instruction
system.cpu.op_class_0::SimdCmp                      0      0.00%     46.46% # Class of committed instruction
system.cpu.op_class_0::SimdCvt                      0      0.00%     46.46% # Class of committed instruction
system.cpu.op_class_0::SimdMisc                     0      0.00%     46.46% # Class of committed instruction
system.cpu.op_class_0::SimdMult                     0      0.00%     46.46% # Class of committed instruction
system.cpu.op_class_0::SimdMultAcc                  0      0.00%     46.46% # Class of committed instruction
system.cpu.op_class_0::SimdShift                    0      0.00%     46.46% # Class of committed instruction
system.cpu.op_class_0::SimdShiftAcc                 0      0.00%     46.46% # Class of committed instruction
system.cpu.op_class_0::SimdDiv                      0      0.00%     46.46% # Class of committed instruction
system.cpu.op_class_0::SimdSqrt                     0      0.00%     46.46% # Class of committed instruction
system.cpu.op_class_0::SimdFloatAdd                 0      0.00%     46.46% # Class of committed instruction
system.cpu.op_class_0::SimdFloatAlu                 0      0.00%     46.46% # Class of committed instruction
system.cpu.op_class_0::SimdFloatCmp                 0      0.00%     46.46% # Class of committed instruction
system.cpu.op_class_0::SimdFloatCvt                 0      0.00%     46.46% # Class of committed instruction
system.cpu.op_class_0::SimdFloatDiv                 0      0.00%     46.46% # Class of committed instruction
system.cpu.op_class_0::SimdFloatMisc               18      0.00%     46.46% # Class of committed instruction
system.cpu.op_class_0::SimdFloatMult                0      0.00%     46.46% # Class of committed instruction
system.cpu.op_class_0::SimdFloatMultAcc             0      0.00%     46.46% # Class of committed instruction
system.cpu.op_class_0::SimdFloatSqrt                0      0.00%     46.46% # Class of committed instruction
system.cpu.op_class_0::SimdReduceAdd                0      0.00%     46.46% # Class of committed instruction
system.cpu.op_class_0::SimdReduceAlu                0      0.00%     46.46% # Class of committed instruction
system.cpu.op_class_0::SimdReduceCmp                0      0.00%     46.46% # Class of committed instruction
system.cpu.op_class_0::SimdFloatReduceAdd            0      0.00%     46.46% # Class of committed instruction
system.cpu.op_class_0::SimdFloatReduceCmp            0      0.00%     46.46% # Class of committed instruction
system.cpu.op_class_0::SimdAes                      0      0.00%     46.46% # Class of committed instruction
system.cpu.op_class_0::SimdAesMix                   0      0.00%     46.46% # Class of committed instruction
system.cpu.op_class_0::SimdSha1Hash                 0      0.00%     46.46% # Class of committed instruction
system.cpu.op_class_0::SimdSha1Hash2                0      0.00%     46.46% # Class of committed instruction
system.cpu.op_class_0::SimdSha256Hash               0      0.00%     46.46% # Class of committed instruction
system.cpu.op_class_0::SimdSha256Hash2              0      0.00%     46.46% # Class of committed instruction
system.cpu.op_class_0::SimdShaSigma2                0      0.00%     46.46% # Class of committed instruction
system.cpu.op_class_0::SimdShaSigma3                0      0.00%     46.46% # Class of committed instruction
system.cpu.op_class_0::SimdPredAlu                  0      0.00%     46.46% # Class of committed instruction
system.cpu.op_class_0::MemRead               42693601     42.61%     89.07% # Class of committed instruction
system.cpu.op_class_0::MemWrite              10950624     10.93%    100.00% # Class of committed instruction
system.cpu.op_class_0::FloatMemRead                 0      0.00%    100.00% # Class of committed instruction
system.cpu.op_class_0::FloatMemWrite                0      0.00%    100.00% # Class of committed instruction
system.cpu.op_class_0::IprAccess                    0      0.00%    100.00% # Class of committed instruction
system.cpu.op_class_0::InstPrefetch                 0      0.00%    100.00% # Class of committed instruction
system.cpu.op_class_0::total                100196363                       # Class of committed instruction
system.cpu.tickCycles                       133355077                       # Number of cycles that the object actually ticked
system.cpu.workload.numSyscalls                    84                       # Number of system calls
system.membus.snoop_filter.hit_multi_requests            0                       # Number of requests hitting in the snoop filter with multiple (>1) holders of the requested data.
system.membus.snoop_filter.hit_multi_snoops            0                       # Number of snoops hitting in the snoop filter with multiple (>1) holders of the requested data.
system.membus.snoop_filter.hit_single_requests       361272                       # Number of requests hitting in the snoop filter with a single holder of the requested data.
system.membus.snoop_filter.hit_single_snoops            0                       # Number of snoops hitting in the snoop filter with a single holder of the requested data.
system.membus.snoop_filter.tot_requests        756014                       # Total number of requests made to the snoop filter.
system.membus.snoop_filter.tot_snoops               0                       # Total number of snoops made to the snoop filter.
system.tol2bus.snoop_filter.hit_multi_requests          125                       # Number of requests hitting in the snoop filter with multiple (>1) holders of the requested data.
system.tol2bus.snoop_filter.hit_multi_snoops            8                       # Number of snoops hitting in the snoop filter with multiple (>1) holders of the requested data.
system.tol2bus.snoop_filter.hit_single_requests       826891                       # Number of requests hitting in the snoop filter with a single holder of the requested data.
system.tol2bus.snoop_filter.hit_single_snoops         1162                       # Number of snoops hitting in the snoop filter with a single holder of the requested data.
system.tol2bus.snoop_filter.tot_requests      1656650                       # Total number of requests made to the snoop filter.
system.tol2bus.snoop_filter.tot_snoops           1170                       # Total number of snoops made to the snoop filter.
system.membus.pwrStateResidencyTicks::UNDEFINED  95131811500                       # Cumulative time (in ticks) in various power states
system.membus.trans_dist::ReadResp             148122                       # Transaction distribution
system.membus.trans_dist::WritebackDirty       236241                       # Transaction distribution
system.membus.trans_dist::CleanEvict           125026                       # Transaction distribution
system.membus.trans_dist::ReadExReq            246625                       # Transaction distribution
system.membus.trans_dist::ReadExResp           246624                       # Transaction distribution
system.membus.trans_dist::ReadSharedReq        148122                       # Transaction distribution
system.membus.pkt_count_system.l2.mem_side::system.mem_ctrls.port      1150760                       # Packet count per connected master and slave (bytes)
system.membus.pkt_count::total                1150760                       # Packet count per connected master and slave (bytes)
system.membus.pkt_size_system.l2.mem_side::system.mem_ctrls.port     20191584                       # Cumulative packet size per connected master and slave (bytes)
system.membus.pkt_size::total                20191584                       # Cumulative packet size per connected master and slave (bytes)
system.membus.snoops                                0                       # Total snoops (count)
system.membus.snoopTraffic                          0                       # Total snoop traffic (bytes)
system.membus.snoop_fanout::samples            394747                       # Request fanout histogram
system.membus.snoop_fanout::mean                    0                       # Request fanout histogram
system.membus.snoop_fanout::stdev                   0                       # Request fanout histogram
system.membus.snoop_fanout::underflows              0      0.00%      0.00% # Request fanout histogram
system.membus.snoop_fanout::0                  394747    100.00%    100.00% # Request fanout histogram
system.membus.snoop_fanout::1                       0      0.00%    100.00% # Request fanout histogram
system.membus.snoop_fanout::overflows               0      0.00%    100.00% # Request fanout histogram
system.membus.snoop_fanout::min_value               0                       # Request fanout histogram
system.membus.snoop_fanout::max_value               0                       # Request fanout histogram
system.membus.snoop_fanout::total              394747                       # Request fanout histogram
system.membus.respLayer1.occupancy         1335857750                       # Layer occupancy (ticks)
system.membus.respLayer1.utilization              1.4                       # Layer utilization (%)
system.membus.reqLayer0.occupancy          1323581500                       # Layer occupancy (ticks)
system.membus.reqLayer0.utilization               1.4                       # Layer utilization (%)
system.tol2bus.pwrStateResidencyTicks::UNDEFINED  95131811500                       # Cumulative time (in ticks) in various power states
system.tol2bus.trans_dist::ReadResp            484598                       # Transaction distribution
system.tol2bus.trans_dist::WritebackDirty       919099                       # Transaction distribution
system.tol2bus.trans_dist::WritebackClean          345                       # Transaction distribution
system.tol2bus.trans_dist::CleanEvict          269802                       # Transaction distribution
system.tol2bus.trans_dist::ReadExReq           345148                       # Transaction distribution
system.tol2bus.trans_dist::ReadExResp          345147                       # Transaction distribution
system.tol2bus.trans_dist::ReadCleanReq          1168                       # Transaction distribution
system.tol2bus.trans_dist::ReadSharedReq       483430                       # Transaction distribution
system.tol2bus.trans_dist::InvalidateReq           15                       # Transaction distribution
system.tol2bus.trans_dist::InvalidateResp           15                       # Transaction distribution
system.tol2bus.pkt_count_system.cpu.icache.mem_side::system.l2.cpu_side         2681                       # Packet count per connected master and slave (bytes)
system.tol2bus.pkt_count_system.cpu.dcache.mem_side::system.l2.cpu_side      2483729                       # Packet count per connected master and slave (bytes)
system.tol2bus.pkt_count::total               2486410                       # Packet count per connected master and slave (bytes)
system.tol2bus.pkt_size_system.cpu.icache.mem_side::system.l2.cpu_side        48416                       # Cumulative packet size per connected master and slave (bytes)
system.tol2bus.pkt_size_system.cpu.dcache.mem_side::system.l2.cpu_side     48365920                       # Cumulative packet size per connected master and slave (bytes)
system.tol2bus.pkt_size::total               48414336                       # Cumulative packet size per connected master and slave (bytes)
system.tol2bus.snoops                          362357                       # Total snoops (count)
system.tol2bus.snoopTraffic                   7559712                       # Total snoop traffic (bytes)
system.tol2bus.snoop_fanout::samples          1192118                       # Request fanout histogram
system.tol2bus.snoop_fanout::mean            0.001095                       # Request fanout histogram
system.tol2bus.snoop_fanout::stdev           0.033270                       # Request fanout histogram
system.tol2bus.snoop_fanout::underflows             0      0.00%      0.00% # Request fanout histogram
system.tol2bus.snoop_fanout::0                1190821     99.89%     99.89% # Request fanout histogram
system.tol2bus.snoop_fanout::1                   1289      0.11%    100.00% # Request fanout histogram
system.tol2bus.snoop_fanout::2                      8      0.00%    100.00% # Request fanout histogram
system.tol2bus.snoop_fanout::overflows              0      0.00%    100.00% # Request fanout histogram
system.tol2bus.snoop_fanout::min_value              0                       # Request fanout histogram
system.tol2bus.snoop_fanout::max_value              2                       # Request fanout histogram
system.tol2bus.snoop_fanout::total            1192118                       # Request fanout histogram
system.tol2bus.reqLayer0.occupancy         1169926500                       # Layer occupancy (ticks)
system.tol2bus.reqLayer0.utilization              1.2                       # Layer utilization (%)
system.tol2bus.respLayer1.occupancy         828585997                       # Layer occupancy (ticks)
system.tol2bus.respLayer1.utilization             0.9                       # Layer utilization (%)
system.tol2bus.respLayer0.occupancy           1168000                       # Layer occupancy (ticks)
system.tol2bus.respLayer0.utilization             0.0                       # Layer utilization (%)
system.voltage_domain.voltage                       1                       # Voltage in Volts
system.clk_domain.clock                          1000                       # Clock period in ticks
system.l2.pwrStateResidencyTicks::UNDEFINED  95131811500                       # Cumulative time (in ticks) in various power states
system.l2.demand_hits::.cpu.inst                   71                       # number of demand (read+write) hits
system.l2.demand_hits::.cpu.data               434925                       # number of demand (read+write) hits
system.l2.demand_hits::total                   434996                       # number of demand (read+write) hits
system.l2.overall_hits::.cpu.inst                  71                       # number of overall hits
system.l2.overall_hits::.cpu.data              434925                       # number of overall hits
system.l2.overall_hits::total                  434996                       # number of overall hits
system.l2.demand_misses::.cpu.inst               1097                       # number of demand (read+write) misses
system.l2.demand_misses::.cpu.data             393653                       # number of demand (read+write) misses
system.l2.demand_misses::total                 394750                       # number of demand (read+write) misses
system.l2.overall_misses::.cpu.inst              1097                       # number of overall misses
system.l2.overall_misses::.cpu.data            393653                       # number of overall misses
system.l2.overall_misses::total                394750                       # number of overall misses
system.l2.demand_miss_latency::.cpu.inst     86362500                       # number of demand (read+write) miss cycles
system.l2.demand_miss_latency::.cpu.data  32710526000                       # number of demand (read+write) miss cycles
system.l2.demand_miss_latency::total      32796888500                       # number of demand (read+write) miss cycles
system.l2.overall_miss_latency::.cpu.inst     86362500                       # number of overall miss cycles
system.l2.overall_miss_latency::.cpu.data  32710526000                       # number of overall miss cycles
system.l2.overall_miss_latency::total     32796888500                       # number of overall miss cycles
system.l2.demand_accesses::.cpu.inst             1168                       # number of demand (read+write) accesses
system.l2.demand_accesses::.cpu.data           828578                       # number of demand (read+write) accesses
system.l2.demand_accesses::total               829746                       # number of demand (read+write) accesses
system.l2.overall_accesses::.cpu.inst            1168                       # number of overall (read+write) accesses
system.l2.overall_accesses::.cpu.data          828578                       # number of overall (read+write) accesses
system.l2.overall_accesses::total              829746                       # number of overall (read+write) accesses
system.l2.demand_miss_rate::.cpu.inst        0.939212                       # miss rate for demand accesses
system.l2.demand_miss_rate::.cpu.data        0.475095                       # miss rate for demand accesses
system.l2.demand_miss_rate::total            0.475748                       # miss rate for demand accesses
system.l2.overall_miss_rate::.cpu.inst       0.939212                       # miss rate for overall accesses
system.l2.overall_miss_rate::.cpu.data       0.475095                       # miss rate for overall accesses
system.l2.overall_miss_rate::total           0.475748                       # miss rate for overall accesses
system.l2.demand_avg_miss_latency::.cpu.inst 78726.071103                       # average overall miss latency
system.l2.demand_avg_miss_latency::.cpu.data 83094.822090                       # average overall miss latency
system.l2.demand_avg_miss_latency::total 83082.681444                       # average overall miss latency
system.l2.overall_avg_miss_latency::.cpu.inst 78726.071103                       # average overall miss latency
system.l2.overall_avg_miss_latency::.cpu.data 83094.822090                       # average overall miss latency
system.l2.overall_avg_miss_latency::total 83082.681444                       # average overall miss latency
system.l2.blocked_cycles::no_mshrs                  0                       # number of cycles access was blocked
system.l2.blocked_cycles::no_targets                0                       # number of cycles access was blocked
system.l2.blocked::no_mshrs                         0                       # number of cycles access was blocked
system.l2.blocked::no_targets                       0                       # number of cycles access was blocked
system.l2.avg_blocked_cycles::no_mshrs            nan                       # average number of cycles each access was blocked
system.l2.avg_blocked_cycles::no_targets          nan                       # average number of cycles each access was blocked
system.l2.writebacks::.writebacks              236241                       # number of writebacks
system.l2.writebacks::total                    236241                       # number of writebacks
system.l2.demand_mshr_hits::.cpu.data               3                       # number of demand (read+write) MSHR hits
system.l2.demand_mshr_hits::total                   3                       # number of demand (read+write) MSHR hits
system.l2.overall_mshr_hits::.cpu.data              3                       # number of overall MSHR hits
system.l2.overall_mshr_hits::total                  3                       # number of overall MSHR hits
system.l2.demand_mshr_misses::.cpu.inst          1097                       # number of demand (read+write) MSHR misses
system.l2.demand_mshr_misses::.cpu.data        393650                       # number of demand (read+write) MSHR misses
system.l2.demand_mshr_misses::total            394747                       # number of demand (read+write) MSHR misses
system.l2.overall_mshr_misses::.cpu.inst         1097                       # number of overall MSHR misses
system.l2.overall_mshr_misses::.cpu.data       393650                       # number of overall MSHR misses
system.l2.overall_mshr_misses::total           394747                       # number of overall MSHR misses
system.l2.demand_mshr_miss_latency::.cpu.inst     75392500                       # number of demand (read+write) MSHR miss cycles
system.l2.demand_mshr_miss_latency::.cpu.data  28773839000                       # number of demand (read+write) MSHR miss cycles
system.l2.demand_mshr_miss_latency::total  28849231500                       # number of demand (read+write) MSHR miss cycles
system.l2.overall_mshr_miss_latency::.cpu.inst     75392500                       # number of overall MSHR miss cycles
system.l2.overall_mshr_miss_latency::.cpu.data  28773839000                       # number of overall MSHR miss cycles
system.l2.overall_mshr_miss_latency::total  28849231500                       # number of overall MSHR miss cycles
system.l2.demand_mshr_miss_rate::.cpu.inst     0.939212                       # mshr miss rate for demand accesses
system.l2.demand_mshr_miss_rate::.cpu.data     0.475091                       # mshr miss rate for demand accesses
system.l2.demand_mshr_miss_rate::total       0.475744                       # mshr miss rate for demand accesses
system.l2.overall_mshr_miss_rate::.cpu.inst     0.939212                       # mshr miss rate for overall accesses
system.l2.overall_mshr_miss_rate::.cpu.data     0.475091                       # mshr miss rate for overall accesses
system.l2.overall_mshr_miss_rate::total      0.475744                       # mshr miss rate for overall accesses
system.l2.demand_avg_mshr_miss_latency::.cpu.inst 68726.071103                       # average overall mshr miss latency
system.l2.demand_avg_mshr_miss_latency::.cpu.data 73094.980312                       # average overall mshr miss latency
system.l2.demand_avg_mshr_miss_latency::total 73082.839135                       # average overall mshr miss latency
system.l2.overall_avg_mshr_miss_latency::.cpu.inst 68726.071103                       # average overall mshr miss latency
system.l2.overall_avg_mshr_miss_latency::.cpu.data 73094.980312                       # average overall mshr miss latency
system.l2.overall_avg_mshr_miss_latency::total 73082.839135                       # average overall mshr miss latency
system.l2.replacements                         362357                       # number of replacements
system.l2.WritebackDirty_hits::.writebacks       682858                       # number of WritebackDirty hits
system.l2.WritebackDirty_hits::total           682858                       # number of WritebackDirty hits
system.l2.WritebackDirty_accesses::.writebacks       682858                       # number of WritebackDirty accesses(hits+misses)
system.l2.WritebackDirty_accesses::total       682858                       # number of WritebackDirty accesses(hits+misses)
system.l2.WritebackClean_hits::.writebacks          338                       # number of WritebackClean hits
system.l2.WritebackClean_hits::total              338                       # number of WritebackClean hits
system.l2.WritebackClean_accesses::.writebacks          338                       # number of WritebackClean accesses(hits+misses)
system.l2.WritebackClean_accesses::total          338                       # number of WritebackClean accesses(hits+misses)
system.l2.CleanEvict_mshr_misses::.writebacks           80                       # number of CleanEvict MSHR misses
system.l2.CleanEvict_mshr_misses::total            80                       # number of CleanEvict MSHR misses
system.l2.CleanEvict_mshr_miss_rate::.writebacks          inf                       # mshr miss rate for CleanEvict accesses
system.l2.CleanEvict_mshr_miss_rate::total          inf                       # mshr miss rate for CleanEvict accesses
system.l2.ReadExReq_hits::.cpu.data             98523                       # number of ReadExReq hits
system.l2.ReadExReq_hits::total                 98523                       # number of ReadExReq hits
system.l2.ReadExReq_misses::.cpu.data          246625                       # number of ReadExReq misses
system.l2.ReadExReq_misses::total              246625                       # number of ReadExReq misses
system.l2.ReadExReq_miss_latency::.cpu.data  20949384500                       # number of ReadExReq miss cycles
system.l2.ReadExReq_miss_latency::total   20949384500                       # number of ReadExReq miss cycles
system.l2.ReadExReq_accesses::.cpu.data        345148                       # number of ReadExReq accesses(hits+misses)
system.l2.ReadExReq_accesses::total            345148                       # number of ReadExReq accesses(hits+misses)
system.l2.ReadExReq_miss_rate::.cpu.data     0.714549                       # miss rate for ReadExReq accesses
system.l2.ReadExReq_miss_rate::total         0.714549                       # miss rate for ReadExReq accesses
system.l2.ReadExReq_avg_miss_latency::.cpu.data 84944.285859                       # average ReadExReq miss latency
system.l2.ReadExReq_avg_miss_latency::total 84944.285859                       # average ReadExReq miss latency
system.l2.ReadExReq_mshr_misses::.cpu.data       246625                       # number of ReadExReq MSHR misses
system.l2.ReadExReq_mshr_misses::total         246625                       # number of ReadExReq MSHR misses
system.l2.ReadExReq_mshr_miss_latency::.cpu.data  18483144500                       # number of ReadExReq MSHR miss cycles
system.l2.ReadExReq_mshr_miss_latency::total  18483144500                       # number of ReadExReq MSHR miss cycles
system.l2.ReadExReq_mshr_miss_rate::.cpu.data     0.714549                       # mshr miss rate for ReadExReq accesses
system.l2.ReadExReq_mshr_miss_rate::total     0.714549                       # mshr miss rate for ReadExReq accesses
system.l2.ReadExReq_avg_mshr_miss_latency::.cpu.data 74944.326406                       # average ReadExReq mshr miss latency
system.l2.ReadExReq_avg_mshr_miss_latency::total 74944.326406                       # average ReadExReq mshr miss latency
system.l2.ReadCleanReq_hits::.cpu.inst             71                       # number of ReadCleanReq hits
system.l2.ReadCleanReq_hits::total                 71                       # number of ReadCleanReq hits
system.l2.ReadCleanReq_misses::.cpu.inst         1097                       # number of ReadCleanReq misses
system.l2.ReadCleanReq_misses::total             1097                       # number of ReadCleanReq misses
system.l2.ReadCleanReq_miss_latency::.cpu.inst     86362500                       # number of ReadCleanReq miss cycles
system.l2.ReadCleanReq_miss_latency::total     86362500                       # number of ReadCleanReq miss cycles
system.l2.ReadCleanReq_accesses::.cpu.inst         1168                       # number of ReadCleanReq accesses(hits+misses)
system.l2.ReadCleanReq_accesses::total           1168                       # number of ReadCleanReq accesses(hits+misses)
system.l2.ReadCleanReq_miss_rate::.cpu.inst     0.939212                       # miss rate for ReadCleanReq accesses
system.l2.ReadCleanReq_miss_rate::total      0.939212                       # miss rate for ReadCleanReq accesses
system.l2.ReadCleanReq_avg_miss_latency::.cpu.inst 78726.071103                       # average ReadCleanReq miss latency
system.l2.ReadCleanReq_avg_miss_latency::total 78726.071103                       # average ReadCleanReq miss latency
system.l2.ReadCleanReq_mshr_misses::.cpu.inst         1097                       # number of ReadCleanReq MSHR misses
system.l2.ReadCleanReq_mshr_misses::total         1097                       # number of ReadCleanReq MSHR misses
system.l2.ReadCleanReq_mshr_miss_latency::.cpu.inst     75392500                       # number of ReadCleanReq MSHR miss cycles
system.l2.ReadCleanReq_mshr_miss_latency::total     75392500                       # number of ReadCleanReq MSHR miss cycles
system.l2.ReadCleanReq_mshr_miss_rate::.cpu.inst     0.939212                       # mshr miss rate for ReadCleanReq accesses
system.l2.ReadCleanReq_mshr_miss_rate::total     0.939212                       # mshr miss rate for ReadCleanReq accesses
system.l2.ReadCleanReq_avg_mshr_miss_latency::.cpu.inst 68726.071103                       # average ReadCleanReq mshr miss latency
system.l2.ReadCleanReq_avg_mshr_miss_latency::total 68726.071103                       # average ReadCleanReq mshr miss latency
system.l2.ReadSharedReq_hits::.cpu.data        336402                       # number of ReadSharedReq hits
system.l2.ReadSharedReq_hits::total            336402                       # number of ReadSharedReq hits
system.l2.ReadSharedReq_misses::.cpu.data       147028                       # number of ReadSharedReq misses
system.l2.ReadSharedReq_misses::total          147028                       # number of ReadSharedReq misses
system.l2.ReadSharedReq_miss_latency::.cpu.data  11761141500                       # number of ReadSharedReq miss cycles
system.l2.ReadSharedReq_miss_latency::total  11761141500                       # number of ReadSharedReq miss cycles
system.l2.ReadSharedReq_accesses::.cpu.data       483430                       # number of ReadSharedReq accesses(hits+misses)
system.l2.ReadSharedReq_accesses::total        483430                       # number of ReadSharedReq accesses(hits+misses)
system.l2.ReadSharedReq_miss_rate::.cpu.data     0.304135                       # miss rate for ReadSharedReq accesses
system.l2.ReadSharedReq_miss_rate::total     0.304135                       # miss rate for ReadSharedReq accesses
system.l2.ReadSharedReq_avg_miss_latency::.cpu.data 79992.528634                       # average ReadSharedReq miss latency
system.l2.ReadSharedReq_avg_miss_latency::total 79992.528634                       # average ReadSharedReq miss latency
system.l2.ReadSharedReq_mshr_hits::.cpu.data            3                       # number of ReadSharedReq MSHR hits
system.l2.ReadSharedReq_mshr_hits::total            3                       # number of ReadSharedReq MSHR hits
system.l2.ReadSharedReq_mshr_misses::.cpu.data       147025                       # number of ReadSharedReq MSHR misses
system.l2.ReadSharedReq_mshr_misses::total       147025                       # number of ReadSharedReq MSHR misses
system.l2.ReadSharedReq_mshr_miss_latency::.cpu.data  10290694500                       # number of ReadSharedReq MSHR miss cycles
system.l2.ReadSharedReq_mshr_miss_latency::total  10290694500                       # number of ReadSharedReq MSHR miss cycles
system.l2.ReadSharedReq_mshr_miss_rate::.cpu.data     0.304129                       # mshr miss rate for ReadSharedReq accesses
system.l2.ReadSharedReq_mshr_miss_rate::total     0.304129                       # mshr miss rate for ReadSharedReq accesses
system.l2.ReadSharedReq_avg_mshr_miss_latency::.cpu.data 69992.820949                       # average ReadSharedReq mshr miss latency
system.l2.ReadSharedReq_avg_mshr_miss_latency::total 69992.820949                       # average ReadSharedReq mshr miss latency
system.l2.InvalidateReq_hits::.cpu.data            15                       # number of InvalidateReq hits
system.l2.InvalidateReq_hits::total                15                       # number of InvalidateReq hits
system.l2.InvalidateReq_accesses::.cpu.data           15                       # number of InvalidateReq accesses(hits+misses)
system.l2.InvalidateReq_accesses::total            15                       # number of InvalidateReq accesses(hits+misses)
system.l2.tags.pwrStateResidencyTicks::UNDEFINED  95131811500                       # Cumulative time (in ticks) in various power states
system.l2.tags.tagsinuse                 31911.630999                       # Cycle average of tags in use
system.l2.tags.total_refs                     1656441                       # Total number of references to valid blocks.
system.l2.tags.sampled_refs                    395140                       # Sample count of references to valid blocks.
system.l2.tags.avg_refs                      4.192036                       # Average number of references to valid blocks.
system.l2.tags.warmup_cycle                     77000                       # Cycle when the warmup percentage was hit.
system.l2.tags.occ_blocks::.writebacks      51.613473                       # Average occupied blocks per requestor
system.l2.tags.occ_blocks::.cpu.inst       100.438069                       # Average occupied blocks per requestor
system.l2.tags.occ_blocks::.cpu.data     31759.579457                       # Average occupied blocks per requestor
system.l2.tags.occ_percent::.writebacks      0.001575                       # Average percentage of cache occupancy
system.l2.tags.occ_percent::.cpu.inst        0.003065                       # Average percentage of cache occupancy
system.l2.tags.occ_percent::.cpu.data        0.969225                       # Average percentage of cache occupancy
system.l2.tags.occ_percent::total            0.973866                       # Average percentage of cache occupancy
system.l2.tags.occ_task_id_blocks::1024         32768                       # Occupied blocks per task id
system.l2.tags.age_task_id_blocks_1024::0          134                       # Occupied blocks per task id
system.l2.tags.age_task_id_blocks_1024::1          237                       # Occupied blocks per task id
system.l2.tags.age_task_id_blocks_1024::2         3122                       # Occupied blocks per task id
system.l2.tags.age_task_id_blocks_1024::3        22246                       # Occupied blocks per task id
system.l2.tags.age_task_id_blocks_1024::4         7029                       # Occupied blocks per task id
system.l2.tags.occ_task_id_percent::1024            1                       # Percentage of cache occupancy per task id
system.l2.tags.tag_accesses                   7021240                       # Number of tag accesses
system.l2.tags.data_accesses                  7021240                       # Number of data accesses
system.cpu_voltage_domain.voltage                   1                       # Voltage in Volts
system.mem_ctrls.pwrStateResidencyTicks::UNDEFINED  95131811500                       # Cumulative time (in ticks) in various power states
system.mem_ctrls.bytes_read::.cpu.inst          35104                       # Number of bytes read from this memory
system.mem_ctrls.bytes_read::.cpu.data       12596768                       # Number of bytes read from this memory
system.mem_ctrls.bytes_read::total           12631872                       # Number of bytes read from this memory
system.mem_ctrls.bytes_inst_read::.cpu.inst        35104                       # Number of instructions bytes read from this memory
system.mem_ctrls.bytes_inst_read::total         35104                       # Number of instructions bytes read from this memory
system.mem_ctrls.bytes_written::.writebacks      7559712                       # Number of bytes written to this memory
system.mem_ctrls.bytes_written::total         7559712                       # Number of bytes written to this memory
system.mem_ctrls.num_reads::.cpu.inst            1097                       # Number of read requests responded to by this memory
system.mem_ctrls.num_reads::.cpu.data          393649                       # Number of read requests responded to by this memory
system.mem_ctrls.num_reads::total              394746                       # Number of read requests responded to by this memory
system.mem_ctrls.num_writes::.writebacks       236241                       # Number of write requests responded to by this memory
system.mem_ctrls.num_writes::total             236241                       # Number of write requests responded to by this memory
system.mem_ctrls.bw_read::.cpu.inst            369004                       # Total read bandwidth from this memory (bytes/s)
system.mem_ctrls.bw_read::.cpu.data         132413835                       # Total read bandwidth from this memory (bytes/s)
system.mem_ctrls.bw_read::total             132782839                       # Total read bandwidth from this memory (bytes/s)
system.mem_ctrls.bw_inst_read::.cpu.inst       369004                       # Instruction read bandwidth from this memory (bytes/s)
system.mem_ctrls.bw_inst_read::total           369004                       # Instruction read bandwidth from this memory (bytes/s)
system.mem_ctrls.bw_write::.writebacks       79465658                       # Write bandwidth from this memory (bytes/s)
system.mem_ctrls.bw_write::total             79465658                       # Write bandwidth from this memory (bytes/s)
system.mem_ctrls.bw_total::.writebacks       79465658                       # Total bandwidth to/from this memory (bytes/s)
system.mem_ctrls.bw_total::.cpu.inst           369004                       # Total bandwidth to/from this memory (bytes/s)
system.mem_ctrls.bw_total::.cpu.data        132413835                       # Total bandwidth to/from this memory (bytes/s)
system.mem_ctrls.bw_total::total            212248497                       # Total bandwidth to/from this memory (bytes/s)
system.mem_ctrls.avgPriority_.writebacks::samples    187592.00                       # Average QoS priority value for accepted requests
system.mem_ctrls.avgPriority_.cpu.inst::samples      1097.00                       # Average QoS priority value for accepted requests
system.mem_ctrls.avgPriority_.cpu.data::samples    393572.00                       # Average QoS priority value for accepted requests
system.mem_ctrls.priorityMinLatency      0.000000018750                       # per QoS priority minimum request to response latency (s)
system.mem_ctrls.priorityMaxLatency      0.004731130500                       # per QoS priority maximum request to response latency (s)
system.mem_ctrls.numReadWriteTurnArounds        11121                       # Number of turnarounds from READ to WRITE
system.mem_ctrls.numWriteReadTurnArounds        11121                       # Number of turnarounds from WRITE to READ
system.mem_ctrls.numStayReadState             1036331                       # Number of times bus staying in READ state
system.mem_ctrls.numStayWriteState             176657                       # Number of times bus staying in WRITE state
system.mem_ctrls.readReqs                      394747                       # Number of read requests accepted
system.mem_ctrls.writeReqs                     236241                       # Number of write requests accepted
system.mem_ctrls.readBursts                    394747                       # Number of DRAM read bursts, including those serviced by the write queue
system.mem_ctrls.writeBursts                   236241                       # Number of DRAM write bursts, including those merged in the write queue
system.mem_ctrls.servicedByWrQ                     78                       # Number of DRAM read bursts serviced by the write queue
system.mem_ctrls.mergedWrBursts                 48649                       # Number of DRAM write bursts merged with an existing one
system.mem_ctrls.neitherReadNorWriteReqs            0                       # Number of requests that are neither read nor write
system.mem_ctrls.perBankRdBursts::0             24925                       # Per bank write bursts
system.mem_ctrls.perBankRdBursts::1             24746                       # Per bank write bursts
system.mem_ctrls.perBankRdBursts::2             24941                       # Per bank write bursts
system.mem_ctrls.perBankRdBursts::3             24692                       # Per bank write bursts
system.mem_ctrls.perBankRdBursts::4             24850                       # Per bank write bursts
system.mem_ctrls.perBankRdBursts::5             24699                       # Per bank write bursts
system.mem_ctrls.perBankRdBursts::6             24123                       # Per bank write bursts
system.mem_ctrls.perBankRdBursts::7             24663                       # Per bank write bursts
system.mem_ctrls.perBankRdBursts::8             24515                       # Per bank write bursts
system.mem_ctrls.perBankRdBursts::9             24410                       # Per bank write bursts
system.mem_ctrls.perBankRdBursts::10            24374                       # Per bank write bursts
system.mem_ctrls.perBankRdBursts::11            24139                       # Per bank write bursts
system.mem_ctrls.perBankRdBursts::12            24844                       # Per bank write bursts
system.mem_ctrls.perBankRdBursts::13            25191                       # Per bank write bursts
system.mem_ctrls.perBankRdBursts::14            24780                       # Per bank write bursts
system.mem_ctrls.perBankRdBursts::15            24777                       # Per bank write bursts
system.mem_ctrls.perBankWrBursts::0             11686                       # Per bank write bursts
system.mem_ctrls.perBankWrBursts::1             11567                       # Per bank write bursts
system.mem_ctrls.perBankWrBursts::2             11723                       # Per bank write bursts
system.mem_ctrls.perBankWrBursts::3             11774                       # Per bank write bursts
system.mem_ctrls.perBankWrBursts::4             12093                       # Per bank write bursts
system.mem_ctrls.perBankWrBursts::5             12010                       # Per bank write bursts
system.mem_ctrls.perBankWrBursts::6             11426                       # Per bank write bursts
system.mem_ctrls.perBankWrBursts::7             11649                       # Per bank write bursts
system.mem_ctrls.perBankWrBursts::8             11403                       # Per bank write bursts
system.mem_ctrls.perBankWrBursts::9             11549                       # Per bank write bursts
system.mem_ctrls.perBankWrBursts::10            11614                       # Per bank write bursts
system.mem_ctrls.perBankWrBursts::11            11469                       # Per bank write bursts
system.mem_ctrls.perBankWrBursts::12            11803                       # Per bank write bursts
system.mem_ctrls.perBankWrBursts::13            12060                       # Per bank write bursts
system.mem_ctrls.perBankWrBursts::14            11810                       # Per bank write bursts
system.mem_ctrls.perBankWrBursts::15            11928                       # Per bank write bursts
system.mem_ctrls.avgRdQLen                       1.09                       # Average read queue length when enqueuing
system.mem_ctrls.avgWrQLen                      24.80                       # Average write queue length when enqueuing
system.mem_ctrls.totQLat                   5180425000                       # Total ticks spent queuing
system.mem_ctrls.totBusLat                 1973345000                       # Total ticks spent in databus transfers
system.mem_ctrls.totMemAccLat             12580468750                       # Total ticks spent from burst creation until serviced by the DRAM
system.mem_ctrls.avgQLat                     13126.00                       # Average queueing delay per DRAM burst
system.mem_ctrls.avgBusLat                    5000.00                       # Average bus latency per DRAM burst
system.mem_ctrls.avgMemAccLat                31876.00                       # Average memory access latency per DRAM burst
system.mem_ctrls.numRdRetry                         0                       # Number of times read queue was full causing retry
system.mem_ctrls.numWrRetry                         0                       # Number of times write queue was full causing retry
system.mem_ctrls.readRowHits                   261699                       # Number of row buffer hits during reads
system.mem_ctrls.writeRowHits                  101836                       # Number of row buffer hits during writes
system.mem_ctrls.readRowHitRate                 66.31                       # Row buffer hit rate for reads
system.mem_ctrls.writeRowHitRate                54.29                       # Row buffer hit rate for writes
system.mem_ctrls.readPktSize::0                     0                       # Read request sizes (log2)
system.mem_ctrls.readPktSize::1                     0                       # Read request sizes (log2)
system.mem_ctrls.readPktSize::2                     0                       # Read request sizes (log2)
system.mem_ctrls.readPktSize::3                     0                       # Read request sizes (log2)
system.mem_ctrls.readPktSize::4                     0                       # Read request sizes (log2)
system.mem_ctrls.readPktSize::5                394747                       # Read request sizes (log2)
system.mem_ctrls.readPktSize::6                     0                       # Read request sizes (log2)
system.mem_ctrls.writePktSize::0                    0                       # Write request sizes (log2)
system.mem_ctrls.writePktSize::1                    0                       # Write request sizes (log2)
system.mem_ctrls.writePktSize::2                    0                       # Write request sizes (log2)
system.mem_ctrls.writePktSize::3                    0                       # Write request sizes (log2)
system.mem_ctrls.writePktSize::4                    0                       # Write request sizes (log2)
system.mem_ctrls.writePktSize::5               236241                       # Write request sizes (log2)
system.mem_ctrls.writePktSize::6                    0                       # Write request sizes (log2)
system.mem_ctrls.rdQLenPdf::0                  321012                       # What read queue length does an incoming req see
system.mem_ctrls.rdQLenPdf::1                   73488                       # What read queue length does an incoming req see
system.mem_ctrls.rdQLenPdf::2                     141                       # What read queue length does an incoming req see
system.mem_ctrls.rdQLenPdf::3                      27                       # What read queue length does an incoming req see
system.mem_ctrls.rdQLenPdf::4                       1                       # What read queue length does an incoming req see
system.mem_ctrls.rdQLenPdf::5                       0                       # What read queue length does an incoming req see
system.mem_ctrls.rdQLenPdf::6                       0                       # What read queue length does an incoming req see
system.mem_ctrls.rdQLenPdf::7                       0                       # What read queue length does an incoming req see
system.mem_ctrls.rdQLenPdf::8                       0                       # What read queue length does an incoming req see
system.mem_ctrls.rdQLenPdf::9                       0                       # What read queue length does an incoming req see
system.mem_ctrls.rdQLenPdf::10                      0                       # What read queue length does an incoming req see
system.mem_ctrls.rdQLenPdf::11                      0                       # What read queue length does an incoming req see
system.mem_ctrls.rdQLenPdf::12                      0                       # What read queue length does an incoming req see
system.mem_ctrls.rdQLenPdf::13                      0                       # What read queue length does an incoming req see
system.mem_ctrls.rdQLenPdf::14                      0                       # What read queue length does an incoming req see
system.mem_ctrls.rdQLenPdf::15                      0                       # What read queue length does an incoming req see
system.mem_ctrls.rdQLenPdf::16                      0                       # What read queue length does an incoming req see
system.mem_ctrls.rdQLenPdf::17                      0                       # What read queue length does an incoming req see
system.mem_ctrls.rdQLenPdf::18                      0                       # What read queue length does an incoming req see
system.mem_ctrls.rdQLenPdf::19                      0                       # What read queue length does an incoming req see
system.mem_ctrls.rdQLenPdf::20                      0                       # What read queue length does an incoming req see
system.mem_ctrls.rdQLenPdf::21                      0                       # What read queue length does an incoming req see
system.mem_ctrls.rdQLenPdf::22                      0                       # What read queue length does an incoming req see
system.mem_ctrls.rdQLenPdf::23                      0                       # What read queue length does an incoming req see
system.mem_ctrls.rdQLenPdf::24                      0                       # What read queue length does an incoming req see
system.mem_ctrls.rdQLenPdf::25                      0                       # What read queue length does an incoming req see
system.mem_ctrls.rdQLenPdf::26                      0                       # What read queue length does an incoming req see
system.mem_ctrls.rdQLenPdf::27                      0                       # What read queue length does an incoming req see
system.mem_ctrls.rdQLenPdf::28                      0                       # What read queue length does an incoming req see
system.mem_ctrls.rdQLenPdf::29                      0                       # What read queue length does an incoming req see
system.mem_ctrls.rdQLenPdf::30                      0                       # What read queue length does an incoming req see
system.mem_ctrls.rdQLenPdf::31                      0                       # What read queue length does an incoming req see
system.mem_ctrls.wrQLenPdf::0                       1                       # What write queue length does an incoming req see
system.mem_ctrls.wrQLenPdf::1                       1                       # What write queue length does an incoming req see
system.mem_ctrls.wrQLenPdf::2                       1                       # What write queue length does an incoming req see
system.mem_ctrls.wrQLenPdf::3                       1                       # What write queue length does an incoming req see
system.mem_ctrls.wrQLenPdf::4                       1                       # What write queue length does an incoming req see
system.mem_ctrls.wrQLenPdf::5                       1                       # What write queue length does an incoming req see
system.mem_ctrls.wrQLenPdf::6                       1                       # What write queue length does an incoming req see
system.mem_ctrls.wrQLenPdf::7                       1                       # What write queue length does an incoming req see
system.mem_ctrls.wrQLenPdf::8                       1                       # What write queue length does an incoming req see
system.mem_ctrls.wrQLenPdf::9                       1                       # What write queue length does an incoming req see
system.mem_ctrls.wrQLenPdf::10                      1                       # What write queue length does an incoming req see
system.mem_ctrls.wrQLenPdf::11                      1                       # What write queue length does an incoming req see
system.mem_ctrls.wrQLenPdf::12                      1                       # What write queue length does an incoming req see
system.mem_ctrls.wrQLenPdf::13                      1                       # What write queue length does an incoming req see
system.mem_ctrls.wrQLenPdf::14                      1                       # What write queue length does an incoming req see
system.mem_ctrls.wrQLenPdf::15                   4412                       # What write queue length does an incoming req see
system.mem_ctrls.wrQLenPdf::16                   4562                       # What write queue length does an incoming req see
system.mem_ctrls.wrQLenPdf::17                   9341                       # What write queue length does an incoming req see
system.mem_ctrls.wrQLenPdf::18                  11228                       # What write queue length does an incoming req see
system.mem_ctrls.wrQLenPdf::19                  11240                       # What write queue length does an incoming req see
system.mem_ctrls.wrQLenPdf::20                  11297                       # What write queue length does an incoming req see
system.mem_ctrls.wrQLenPdf::21                  11219                       # What write queue length does an incoming req see
system.mem_ctrls.wrQLenPdf::22                  11215                       # What write queue length does an incoming req see
system.mem_ctrls.wrQLenPdf::23                  11217                       # What write queue length does an incoming req see
system.mem_ctrls.wrQLenPdf::24                  11228                       # What write queue length does an incoming req see
system.mem_ctrls.wrQLenPdf::25                  11264                       # What write queue length does an incoming req see
system.mem_ctrls.wrQLenPdf::26                  11690                       # What write queue length does an incoming req see
system.mem_ctrls.wrQLenPdf::27                  11184                       # What write queue length does an incoming req see
system.mem_ctrls.wrQLenPdf::28                  11269                       # What write queue length does an incoming req see
system.mem_ctrls.wrQLenPdf::29                  11319                       # What write queue length does an incoming req see
system.mem_ctrls.wrQLenPdf::30                  11149                       # What write queue length does an incoming req see
system.mem_ctrls.wrQLenPdf::31                  11138                       # What write queue length does an incoming req see
system.mem_ctrls.wrQLenPdf::32                  11599                       # What write queue length does an incoming req see
system.mem_ctrls.wrQLenPdf::33                      6                       # What write queue length does an incoming req see
system.mem_ctrls.wrQLenPdf::34                      0                       # What write queue length does an incoming req see
system.mem_ctrls.wrQLenPdf::35                      0                       # What write queue length does an incoming req see
system.mem_ctrls.wrQLenPdf::36                      0                       # What write queue length does an incoming req see
system.mem_ctrls.wrQLenPdf::37                      0                       # What write queue length does an incoming req see
system.mem_ctrls.wrQLenPdf::38                      0                       # What write queue length does an incoming req see
system.mem_ctrls.wrQLenPdf::39                      0                       # What write queue length does an incoming req see
system.mem_ctrls.wrQLenPdf::40                      0                       # What write queue length does an incoming req see
system.mem_ctrls.wrQLenPdf::41                      0                       # What write queue length does an incoming req see
system.mem_ctrls.wrQLenPdf::42                      0                       # What write queue length does an incoming req see
system.mem_ctrls.wrQLenPdf::43                      0                       # What write queue length does an incoming req see
system.mem_ctrls.wrQLenPdf::44                      0                       # What write queue length does an incoming req see
system.mem_ctrls.wrQLenPdf::45                      0                       # What write queue length does an incoming req see
system.mem_ctrls.wrQLenPdf::46                      0                       # What write queue length does an incoming req see
system.mem_ctrls.wrQLenPdf::47                      0                       # What write queue length does an incoming req see
system.mem_ctrls.wrQLenPdf::48                      0                       # What write queue length does an incoming req see
system.mem_ctrls.wrQLenPdf::49                      0                       # What write queue length does an incoming req see
system.mem_ctrls.wrQLenPdf::50                      0                       # What write queue length does an incoming req see
system.mem_ctrls.wrQLenPdf::51                      0                       # What write queue length does an incoming req see
system.mem_ctrls.wrQLenPdf::52                      0                       # What write queue length does an incoming req see
system.mem_ctrls.wrQLenPdf::53                      0                       # What write queue length does an incoming req see
system.mem_ctrls.wrQLenPdf::54                      0                       # What write queue length does an incoming req see
system.mem_ctrls.wrQLenPdf::55                      0                       # What write queue length does an incoming req see
system.mem_ctrls.wrQLenPdf::56                      0                       # What write queue length does an incoming req see
system.mem_ctrls.wrQLenPdf::57                      0                       # What write queue length does an incoming req see
system.mem_ctrls.wrQLenPdf::58                      0                       # What write queue length does an incoming req see
system.mem_ctrls.wrQLenPdf::59                      0                       # What write queue length does an incoming req see
system.mem_ctrls.wrQLenPdf::60                      0                       # What write queue length does an incoming req see
system.mem_ctrls.wrQLenPdf::61                      0                       # What write queue length does an incoming req see
system.mem_ctrls.wrQLenPdf::62                      0                       # What write queue length does an incoming req see
system.mem_ctrls.wrQLenPdf::63                      0                       # What write queue length does an incoming req see
system.mem_ctrls.bytesPerActivate::samples       218684                       # Bytes accessed per row activation
system.mem_ctrls.bytesPerActivate::mean    170.391762                       # Bytes accessed per row activation
system.mem_ctrls.bytesPerActivate::gmean   101.632246                       # Bytes accessed per row activation
system.mem_ctrls.bytesPerActivate::stdev   246.912678                       # Bytes accessed per row activation
system.mem_ctrls.bytesPerActivate::0-127       154588     70.69%     70.69% # Bytes accessed per row activation
system.mem_ctrls.bytesPerActivate::128-255        29981     13.71%     84.40% # Bytes accessed per row activation
system.mem_ctrls.bytesPerActivate::256-383         6327      2.89%     87.29% # Bytes accessed per row activation
system.mem_ctrls.bytesPerActivate::384-511         2416      1.10%     88.40% # Bytes accessed per row activation
system.mem_ctrls.bytesPerActivate::512-639         9963      4.56%     92.95% # Bytes accessed per row activation
system.mem_ctrls.bytesPerActivate::640-767         1063      0.49%     93.44% # Bytes accessed per row activation
system.mem_ctrls.bytesPerActivate::768-895          964      0.44%     93.88% # Bytes accessed per row activation
system.mem_ctrls.bytesPerActivate::896-1023         1637      0.75%     94.63% # Bytes accessed per row activation
system.mem_ctrls.bytesPerActivate::1024-1151        11745      5.37%    100.00% # Bytes accessed per row activation
system.mem_ctrls.bytesPerActivate::total       218684                       # Bytes accessed per row activation
system.mem_ctrls.rdPerTurnAround::samples        11121                       # Reads before turning the bus around for writes
system.mem_ctrls.rdPerTurnAround::mean      35.487366                       # Reads before turning the bus around for writes
system.mem_ctrls.rdPerTurnAround::gmean     27.559509                       # Reads before turning the bus around for writes
system.mem_ctrls.rdPerTurnAround::stdev     76.096334                       # Reads before turning the bus around for writes
[...]
system.cpu.icache.tags.occ_task_id_blocks::1024          823                       # Occupied blocks per task id
system.cpu.icache.tags.age_task_id_blocks_1024::3          215                       # Occupied blocks per task id
system.cpu.icache.tags.age_task_id_blocks_1024::4          608                       # Occupied blocks per task id
system.cpu.icache.tags.occ_task_id_percent::1024     0.803711                       # Percentage of cache occupancy per task id
system.cpu.icache.tags.tag_accesses          26689682                       # Number of tag accesses
system.cpu.icache.tags.data_accesses         26689682                       # Number of data accesses
system.cpu.dtb.walker.pwrStateResidencyTicks::UNDEFINED  95131811500                       # Cumulative time (in ticks) in various power states
system.cpu.dtb.stage2_mmu.stage2_tlb.walker.pwrStateResidencyTicks::UNDEFINED  95131811500                       # Cumulative time (in ticks) in various power states
system.cpu.dcache.pwrStateResidencyTicks::UNDEFINED  95131811500                       # Cumulative time (in ticks) in various power states
system.cpu.dcache.demand_hits::.cpu.data     51159969                       # number of demand (read+write) hits
system.cpu.dcache.demand_hits::total         51159969                       # number of demand (read+write) hits
system.cpu.dcache.overall_hits::.cpu.data     51160385                       # number of overall hits
system.cpu.dcache.overall_hits::total        51160385                       # number of overall hits
system.cpu.dcache.demand_misses::.cpu.data       944848                       # number of demand (read+write) misses
system.cpu.dcache.demand_misses::total         944848                       # number of demand (read+write) misses
system.cpu.dcache.overall_misses::.cpu.data       952850                       # number of overall misses
system.cpu.dcache.overall_misses::total        952850                       # number of overall misses
system.cpu.dcache.demand_miss_latency::.cpu.data  44575826000                       # number of demand (read+write) miss cycles
system.cpu.dcache.demand_miss_latency::total  44575826000                       # number of demand (read+write) miss cycles
system.cpu.dcache.overall_miss_latency::.cpu.data  44575826000                       # number of overall miss cycles
system.cpu.dcache.overall_miss_latency::total  44575826000                       # number of overall miss cycles
system.cpu.dcache.demand_accesses::.cpu.data     52104817                       # number of demand (read+write) accesses
system.cpu.dcache.demand_accesses::total     52104817                       # number of demand (read+write) accesses
system.cpu.dcache.overall_accesses::.cpu.data     52113235                       # number of overall (read+write) accesses
system.cpu.dcache.overall_accesses::total     52113235                       # number of overall (read+write) accesses
system.cpu.dcache.demand_miss_rate::.cpu.data     0.018134                       # miss rate for demand accesses
system.cpu.dcache.demand_miss_rate::total     0.018134                       # miss rate for demand accesses
system.cpu.dcache.overall_miss_rate::.cpu.data     0.018284                       # miss rate for overall accesses
system.cpu.dcache.overall_miss_rate::total     0.018284                       # miss rate for overall accesses
system.cpu.dcache.demand_avg_miss_latency::.cpu.data 47177.774626                       # average overall miss latency
system.cpu.dcache.demand_avg_miss_latency::total 47177.774626                       # average overall miss latency
system.cpu.dcache.overall_avg_miss_latency::.cpu.data 46781.577373                       # average overall miss latency
system.cpu.dcache.overall_avg_miss_latency::total 46781.577373                       # average overall miss latency
system.cpu.dcache.blocked_cycles::no_mshrs         5788                       # number of cycles access was blocked
system.cpu.dcache.blocked_cycles::no_targets            0                       # number of cycles access was blocked
system.cpu.dcache.blocked::no_mshrs                79                       # number of cycles access was blocked
system.cpu.dcache.blocked::no_targets               0                       # number of cycles access was blocked
system.cpu.dcache.avg_blocked_cycles::no_mshrs    73.265823                       # average number of cycles each access was blocked
system.cpu.dcache.avg_blocked_cycles::no_targets          nan                       # average number of cycles each access was blocked
system.cpu.dcache.writebacks::.writebacks       682858                       # number of writebacks
system.cpu.dcache.writebacks::total            682858                       # number of writebacks
system.cpu.dcache.demand_mshr_hits::.cpu.data       124258                       # number of demand (read+write) MSHR hits
system.cpu.dcache.demand_mshr_hits::total       124258                       # number of demand (read+write) MSHR hits
system.cpu.dcache.overall_mshr_hits::.cpu.data       124258                       # number of overall MSHR hits
system.cpu.dcache.overall_mshr_hits::total       124258                       # number of overall MSHR hits
system.cpu.dcache.demand_mshr_misses::.cpu.data       820590                       # number of demand (read+write) MSHR misses
system.cpu.dcache.demand_mshr_misses::total       820590                       # number of demand (read+write) MSHR misses
system.cpu.dcache.overall_mshr_misses::.cpu.data       828592                       # number of overall MSHR misses
system.cpu.dcache.overall_mshr_misses::total       828592                       # number of overall MSHR misses
system.cpu.dcache.demand_mshr_miss_latency::.cpu.data  37903044500                       # number of demand (read+write) MSHR miss cycles
system.cpu.dcache.demand_mshr_miss_latency::total  37903044500                       # number of demand (read+write) MSHR miss cycles
system.cpu.dcache.overall_mshr_miss_latency::.cpu.data  38522111999                       # number of overall MSHR miss cycles
system.cpu.dcache.overall_mshr_miss_latency::total  38522111999                       # number of overall MSHR miss cycles
system.cpu.dcache.demand_mshr_miss_rate::.cpu.data     0.015749                       # mshr miss rate for demand accesses
system.cpu.dcache.demand_mshr_miss_rate::total     0.015749                       # mshr miss rate for demand accesses
system.cpu.dcache.overall_mshr_miss_rate::.cpu.data     0.015900                       # mshr miss rate for overall accesses
system.cpu.dcache.overall_mshr_miss_rate::total     0.015900                       # mshr miss rate for overall accesses
system.cpu.dcache.demand_avg_mshr_miss_latency::.cpu.data 46189.990738                       # average overall mshr miss latency
system.cpu.dcache.demand_avg_mshr_miss_latency::total 46189.990738                       # average overall mshr miss latency
system.cpu.dcache.overall_avg_mshr_miss_latency::.cpu.data 46491.049876                       # average overall mshr miss latency
system.cpu.dcache.overall_avg_mshr_miss_latency::total 46491.049876                       # average overall mshr miss latency
system.cpu.dcache.replacements                 826544                       # number of replacements
system.cpu.dcache.ReadReq_hits::.cpu.data     40675361                       # number of ReadReq hits
system.cpu.dcache.ReadReq_hits::total        40675361                       # number of ReadReq hits
system.cpu.dcache.ReadReq_misses::.cpu.data       479338                       # number of ReadReq misses
system.cpu.dcache.ReadReq_misses::total        479338                       # number of ReadReq misses
system.cpu.dcache.ReadReq_miss_latency::.cpu.data  16195697000                       # number of ReadReq miss cycles
system.cpu.dcache.ReadReq_miss_latency::total  16195697000                       # number of ReadReq miss cycles
system.cpu.dcache.ReadReq_accesses::.cpu.data     41154699                       # number of ReadReq accesses(hits+misses)
system.cpu.dcache.ReadReq_accesses::total     41154699                       # number of ReadReq accesses(hits+misses)
system.cpu.dcache.ReadReq_miss_rate::.cpu.data     0.011647                       # miss rate for ReadReq accesses
system.cpu.dcache.ReadReq_miss_rate::total     0.011647                       # miss rate for ReadReq accesses
system.cpu.dcache.ReadReq_avg_miss_latency::.cpu.data 33787.634195                       # average ReadReq miss latency
system.cpu.dcache.ReadReq_avg_miss_latency::total 33787.634195                       # average ReadReq miss latency
system.cpu.dcache.ReadReq_mshr_hits::.cpu.data         3911                       # number of ReadReq MSHR hits
system.cpu.dcache.ReadReq_mshr_hits::total         3911                       # number of ReadReq MSHR hits
system.cpu.dcache.ReadReq_mshr_misses::.cpu.data       475427                       # number of ReadReq MSHR misses
system.cpu.dcache.ReadReq_mshr_misses::total       475427                       # number of ReadReq MSHR misses
system.cpu.dcache.ReadReq_mshr_miss_latency::.cpu.data  15400461000                       # number of ReadReq MSHR miss cycles
system.cpu.dcache.ReadReq_mshr_miss_latency::total  15400461000                       # number of ReadReq MSHR miss cycles
system.cpu.dcache.ReadReq_mshr_miss_rate::.cpu.data     0.011552                       # mshr miss rate for ReadReq accesses
system.cpu.dcache.ReadReq_mshr_miss_rate::total     0.011552                       # mshr miss rate for ReadReq accesses
system.cpu.dcache.ReadReq_avg_mshr_miss_latency::.cpu.data 32392.903642                       # average ReadReq mshr miss latency
system.cpu.dcache.ReadReq_avg_mshr_miss_latency::total 32392.903642                       # average ReadReq mshr miss latency
system.cpu.dcache.WriteReq_hits::.cpu.data     10484608                       # number of WriteReq hits
system.cpu.dcache.WriteReq_hits::total       10484608                       # number of WriteReq hits
system.cpu.dcache.WriteReq_misses::.cpu.data       465510                       # number of WriteReq misses
system.cpu.dcache.WriteReq_misses::total       465510                       # number of WriteReq misses
system.cpu.dcache.WriteReq_miss_latency::.cpu.data  28380129000                       # number of WriteReq miss cycles
system.cpu.dcache.WriteReq_miss_latency::total  28380129000                       # number of WriteReq miss cycles
system.cpu.dcache.WriteReq_accesses::.cpu.data     10950118                       # number of WriteReq accesses(hits+misses)
system.cpu.dcache.WriteReq_accesses::total     10950118                       # number of WriteReq accesses(hits+misses)
system.cpu.dcache.WriteReq_miss_rate::.cpu.data     0.042512                       # miss rate for WriteReq accesses
system.cpu.dcache.WriteReq_miss_rate::total     0.042512                       # miss rate for WriteReq accesses
system.cpu.dcache.WriteReq_avg_miss_latency::.cpu.data 60965.669910                       # average WriteReq miss latency
system.cpu.dcache.WriteReq_avg_miss_latency::total 60965.669910                       # average WriteReq miss latency
system.cpu.dcache.WriteReq_mshr_hits::.cpu.data       120347                       # number of WriteReq MSHR hits
system.cpu.dcache.WriteReq_mshr_hits::total       120347                       # number of WriteReq MSHR hits
system.cpu.dcache.WriteReq_mshr_misses::.cpu.data       345163                       # number of WriteReq MSHR misses
system.cpu.dcache.WriteReq_mshr_misses::total       345163                       # number of WriteReq MSHR misses
system.cpu.dcache.WriteReq_mshr_miss_latency::.cpu.data  22502583500                       # number of WriteReq MSHR miss cycles
system.cpu.dcache.WriteReq_mshr_miss_latency::total  22502583500                       # number of WriteReq MSHR miss cycles
system.cpu.dcache.WriteReq_mshr_miss_rate::.cpu.data     0.031521                       # mshr miss rate for WriteReq accesses
system.cpu.dcache.WriteReq_mshr_miss_rate::total     0.031521                       # mshr miss rate for WriteReq accesses
system.cpu.dcache.WriteReq_avg_mshr_miss_latency::.cpu.data 65194.077870                       # average WriteReq mshr miss latency
system.cpu.dcache.WriteReq_avg_mshr_miss_latency::total 65194.077870                       # average WriteReq mshr miss latency
system.cpu.dcache.SoftPFReq_hits::.cpu.data          416                       # number of SoftPFReq hits
system.cpu.dcache.SoftPFReq_hits::total           416                       # number of SoftPFReq hits
system.cpu.dcache.SoftPFReq_misses::.cpu.data         8002                       # number of SoftPFReq misses
system.cpu.dcache.SoftPFReq_misses::total         8002                       # number of SoftPFReq misses
system.cpu.dcache.SoftPFReq_accesses::.cpu.data         8418                       # number of SoftPFReq accesses(hits+misses)
system.cpu.dcache.SoftPFReq_accesses::total         8418                       # number of SoftPFReq accesses(hits+misses)
system.cpu.dcache.SoftPFReq_miss_rate::.cpu.data     0.950582                       # miss rate for SoftPFReq accesses
system.cpu.dcache.SoftPFReq_miss_rate::total     0.950582                       # miss rate for SoftPFReq accesses
system.cpu.dcache.SoftPFReq_mshr_misses::.cpu.data         8002                       # number of SoftPFReq MSHR misses
system.cpu.dcache.SoftPFReq_mshr_misses::total         8002                       # number of SoftPFReq MSHR misses
system.cpu.dcache.SoftPFReq_mshr_miss_latency::.cpu.data    619067499                       # number of SoftPFReq MSHR miss cycles
system.cpu.dcache.SoftPFReq_mshr_miss_latency::total    619067499                       # number of SoftPFReq MSHR miss cycles
system.cpu.dcache.SoftPFReq_mshr_miss_rate::.cpu.data     0.950582                       # mshr miss rate for SoftPFReq accesses
system.cpu.dcache.SoftPFReq_mshr_miss_rate::total     0.950582                       # mshr miss rate for SoftPFReq accesses
system.cpu.dcache.SoftPFReq_avg_mshr_miss_latency::.cpu.data 77364.096351                       # average SoftPFReq mshr miss latency
system.cpu.dcache.SoftPFReq_avg_mshr_miss_latency::total 77364.096351                       # average SoftPFReq mshr miss latency
system.cpu.dcache.LoadLockedReq_hits::.cpu.data           37                       # number of LoadLockedReq hits
system.cpu.dcache.LoadLockedReq_hits::total           37                       # number of LoadLockedReq hits
system.cpu.dcache.LoadLockedReq_misses::.cpu.data            1                       # number of LoadLockedReq misses
system.cpu.dcache.LoadLockedReq_misses::total            1                       # number of LoadLockedReq misses
system.cpu.dcache.LoadLockedReq_miss_latency::.cpu.data        72500                       # number of LoadLockedReq miss cycles
system.cpu.dcache.LoadLockedReq_miss_latency::total        72500                       # number of LoadLockedReq miss cycles
system.cpu.dcache.LoadLockedReq_accesses::.cpu.data           38                       # number of LoadLockedReq accesses(hits+misses)
system.cpu.dcache.LoadLockedReq_accesses::total           38                       # number of LoadLockedReq accesses(hits+misses)
system.cpu.dcache.LoadLockedReq_miss_rate::.cpu.data     0.026316                       # miss rate for LoadLockedReq accesses
system.cpu.dcache.LoadLockedReq_miss_rate::total     0.026316                       # miss rate for LoadLockedReq accesses
system.cpu.dcache.LoadLockedReq_avg_miss_latency::.cpu.data        72500                       # average LoadLockedReq miss latency
system.cpu.dcache.LoadLockedReq_avg_miss_latency::total        72500                       # average LoadLockedReq miss latency
system.cpu.dcache.LoadLockedReq_mshr_misses::.cpu.data            1                       # number of LoadLockedReq MSHR misses
system.cpu.dcache.LoadLockedReq_mshr_misses::total            1                       # number of LoadLockedReq MSHR misses
system.cpu.dcache.LoadLockedReq_mshr_miss_latency::.cpu.data        71500                       # number of LoadLockedReq MSHR miss cycles
system.cpu.dcache.LoadLockedReq_mshr_miss_latency::total        71500                       # number of LoadLockedReq MSHR miss cycles
system.cpu.dcache.LoadLockedReq_mshr_miss_rate::.cpu.data     0.026316                       # mshr miss rate for LoadLockedReq accesses
system.cpu.dcache.LoadLockedReq_mshr_miss_rate::total     0.026316                       # mshr miss rate for LoadLockedReq accesses
system.cpu.dcache.LoadLockedReq_avg_mshr_miss_latency::.cpu.data        71500                       # average LoadLockedReq mshr miss latency
system.cpu.dcache.LoadLockedReq_avg_mshr_miss_latency::total        71500                       # average LoadLockedReq mshr miss latency
system.cpu.dcache.StoreCondReq_hits::.cpu.data           38                       # number of StoreCondReq hits
system.cpu.dcache.StoreCondReq_hits::total           38                       # number of StoreCondReq hits
system.cpu.dcache.StoreCondReq_accesses::.cpu.data           38                       # number of StoreCondReq accesses(hits+misses)
system.cpu.dcache.StoreCondReq_accesses::total           38                       # number of StoreCondReq accesses(hits+misses)
system.cpu.dcache.tags.pwrStateResidencyTicks::UNDEFINED  95131811500                       # Cumulative time (in ticks) in various power states
system.cpu.dcache.tags.tagsinuse          2016.742830                       # Cycle average of tags in use
system.cpu.dcache.tags.total_refs            51989052                       # Total number of references to valid blocks.
system.cpu.dcache.tags.sampled_refs            828592                       # Sample count of references to valid blocks.
system.cpu.dcache.tags.avg_refs             62.743850                       # Average number of references to valid blocks.
system.cpu.dcache.tags.warmup_cycle            176500                       # Cycle when the warmup percentage was hit.
system.cpu.dcache.tags.occ_blocks::.cpu.data  2016.742830                       # Average occupied blocks per requestor
system.cpu.dcache.tags.occ_percent::.cpu.data     0.984738                       # Average percentage of cache occupancy
system.cpu.dcache.tags.occ_percent::total     0.984738                       # Average percentage of cache occupancy
system.cpu.dcache.tags.occ_task_id_blocks::1024         2048                       # Occupied blocks per task id
system.cpu.dcache.tags.age_task_id_blocks_1024::0          187                       # Occupied blocks per task id
system.cpu.dcache.tags.age_task_id_blocks_1024::1          511                       # Occupied blocks per task id
system.cpu.dcache.tags.age_task_id_blocks_1024::2         1304                       # Occupied blocks per task id
system.cpu.dcache.tags.age_task_id_blocks_1024::3           45                       # Occupied blocks per task id
system.cpu.dcache.tags.age_task_id_blocks_1024::4            1                       # Occupied blocks per task id
system.cpu.dcache.tags.occ_task_id_percent::1024            1                       # Percentage of cache occupancy per task id
system.cpu.dcache.tags.tag_accesses         105055214                       # Number of tag accesses
system.cpu.dcache.tags.data_accesses        105055214                       # Number of data accesses
system.cpu.itb.walker.pwrStateResidencyTicks::UNDEFINED  95131811500                       # Cumulative time (in ticks) in various power states
system.cpu.itb.stage2_mmu.stage2_tlb.walker.pwrStateResidencyTicks::UNDEFINED  95131811500                       # Cumulative time (in ticks) in various power states

---------- End Simulation Statistics   ----------
