
---------- Begin Simulation Statistics ----------
final_tick                                83379651500                       # Number of ticks from beginning of simulation (restored from checkpoints and never reset)
host_inst_rate                                 351463                       # Simulator instruction rate (inst/s)
host_mem_usage                                 687920                       # Number of bytes of host memory used
host_op_rate                                   352153                       # Simulator op (including micro ops) rate (op/s)
host_seconds                                   284.52                       # Real time elapsed on the host
host_tick_rate                              293048792                       # Simulator tick rate (ticks/s)
sim_freq                                 1000000000000                       # Frequency of simulated ticks
sim_insts                                   100000000                       # Number of instructions simulated
sim_ops                                     100196369                       # Number of ops (including micro ops) simulated
sim_seconds                                  0.083380                       # Number of seconds simulated
sim_ticks                                 83379651500                       # Number of ticks simulated
system.cpu.branchPred.BTBCorrect                    0                       # Number of correct BTB predictions (this stat may not work properly.
system.cpu.branchPred.BTBHitPct             99.618093                       # BTB Hit Percentage
system.cpu.branchPred.BTBHits                 2095622                       # Number of BTB hits
system.cpu.branchPred.BTBLookups              2103656                       # Number of BTB lookups
system.cpu.branchPred.RASInCorrect                  6                       # Number of incorrect RAS predictions.
system.cpu.branchPred.condIncorrect             81391                       # Number of conditional branches incorrect
system.cpu.branchPred.condPredicted           3728117                       # Number of conditional branches predicted
system.cpu.branchPred.indirectHits                293                       # Number of indirect target hits.
system.cpu.branchPred.indirectLookups             998                       # Number of indirect predictor lookups.
system.cpu.branchPred.indirectMisses              705                       # Number of indirect misses.
system.cpu.branchPred.lookups                 4478233                       # Number of BP lookups
system.cpu.branchPred.usedRAS                   65355                       # Number of times the RAS was used to get a target.
system.cpu.branchPredindirectMispredicted          168                       # Number of mispredicted indirect branches.
system.cpu.committedInsts                   100000000                       # Number of instructions committed
system.cpu.committedOps                     100196369                       # Number of ops (including micro ops) committed
system.cpu.cpi                               1.667593                       # CPI: cycles per instruction
system.cpu.discardedOps                        190814                       # Number of ops (including micro ops) which were discarded before commit
system.cpu.dtb.accesses                             0                       # DTB accesses
system.cpu.dtb.align_faults                         0                       # Number of TLB faults due to alignment restrictions
system.cpu.dtb.domain_faults                        0                       # Number of TLB faults due to domain restrictions
system.cpu.dtb.flush_entries                        0                       # Number of entries that have been flushed from TLB
system.cpu.dtb.flush_tlb                            0                       # Number of times complete TLB was flushed
system.cpu.dtb.flush_tlb_asid                       0                       # Number of times TLB was flushed by ASID
system.cpu.dtb.flush_tlb_mva                        0                       # Number of times TLB was flushed by MVA
system.cpu.dtb.flush_tlb_mva_asid                   0                       # Number of times TLB was flushed by MVA & ASID
system.cpu.dtb.hits                                 0                       # DTB hits
system.cpu.dtb.inst_accesses                        0                       # ITB inst accesses
system.cpu.dtb.inst_hits                            0                       # ITB inst hits
system.cpu.dtb.inst_misses                          0                       # ITB inst misses
system.cpu.dtb.misses                               0                       # DTB misses
system.cpu.dtb.perms_faults                         0                       # Number of TLB faults due to permissions restrictions
system.cpu.dtb.prefetch_faults                      0                       # Number of TLB faults due to prefetch
system.cpu.dtb.read_accesses                        0                       # DTB read accesses
system.cpu.dtb.read_hits                            0                       # DTB read hits
system.cpu.dtb.read_misses                          0                       # DTB read misses
system.cpu.dtb.stage2_mmu.stage2_tlb.accesses            0                       # DTB accesses
system.cpu.dtb.stage2_mmu.stage2_tlb.align_faults            0                       # Number of TLB faults due to alignment restrictions
system.cpu.dtb.stage2_mmu.stage2_tlb.domain_faults            0                       # Number of TLB faults due to domain restrictions
system.cpu.dtb.stage2_mmu.stage2_tlb.flush_entries            0                       # Number of entries that have been flushed from TLB
system.cpu.dtb.stage2_mmu.stage2_tlb.flush_tlb            0                       # Number of times complete TLB was flushed
system.cpu.dtb.stage2_mmu.stage2_tlb.flush_tlb_asid            0                       # Number of times TLB was flushed by ASID
system.cpu.dtb.stage2_mmu.stage2_tlb.flush_tlb_mva            0                       # Number of times TLB was flushed by MVA
system.cpu.dtb.stage2_mmu.stage2_tlb.flush_tlb_mva_asid            0                       # Number of times TLB was flushed by MVA & ASID
system.cpu.dtb.stage2_mmu.stage2_tlb.hits            0                       # DTB hits
system.cpu.dtb.stage2_mmu.stage2_tlb.inst_accesses            0                       # ITB inst accesses
system.cpu.dtb.stage2_mmu.stage2_tlb.inst_hits            0                       # ITB inst hits
system.cpu.dtb.stage2_mmu.stage2_tlb.inst_misses            0                       # ITB inst misses
system.cpu.dtb.stage2_mmu.stage2_tlb.misses            0                       # DTB misses
system.cpu.dtb.stage2_mmu.stage2_tlb.perms_faults            0                       # Number of TLB faults due to permissions restrictions
system.cpu.dtb.stage2_mmu.stage2_tlb.prefetch_faults            0                       # Number of TLB faults due to prefetch
system.cpu.dtb.stage2_mmu.stage2_tlb.read_accesses            0                       # DTB read accesses
system.cpu.dtb.stage2_mmu.stage2_tlb.read_hits            0                       # DTB read hits
system.cpu.dtb.stage2_mmu.stage2_tlb.read_misses            0                       # DTB read misses
system.cpu.dtb.stage2_mmu.stage2_tlb.walker.walkRequestOrigin_Requested::Data            0                       # Table walker requests started/completed, data/inst
system.cpu.dtb.stage2_mmu.stage2_tlb.walker.walkRequestOrigin_Requested::Inst            0                       # Table walker requests started/completed, data/inst
system.cpu.dtb.stage2_mmu.stage2_tlb.walker.walkRequestOrigin_Requested::total            0                       # Table walker requests started/completed, data/inst
system.cpu.dtb.stage2_mmu.stage2_tlb.walker.walkRequestOrigin_Completed::Data            0                       # Table walker requests started/completed, data/inst
system.cpu.dtb.stage2_mmu.stage2_tlb.walker.walkRequestOrigin_Completed::Inst            0                       # Table walker requests started/completed, data/inst
system.cpu.dtb.stage2_mmu.stage2_tlb.walker.walkRequestOrigin_Completed::total            0                       # Table walker requests started/completed, data/inst
system.cpu.dtb.stage2_mmu.stage2_tlb.walker.walkRequestOrigin::total            0                       # Table walker requests started/completed, data/inst
system.cpu.dtb.stage2_mmu.stage2_tlb.walker.walks            0                       # Table walker walks requested
system.cpu.dtb.stage2_mmu.stage2_tlb.write_accesses            0                       # DTB write accesses
system.cpu.dtb.stage2_mmu.stage2_tlb.write_hits            0                       # DTB write hits
system.cpu.dtb.stage2_mmu.stage2_tlb.write_misses            0                       # DTB write misses
system.cpu.dtb.walker.walkRequestOrigin_Requested::Data            0                       # Table walker requests started/completed, data/inst
system.cpu.dtb.walker.walkRequestOrigin_Requested::Inst            0                       # Table walker requests started/completed, data/inst
system.cpu.dtb.walker.walkRequestOrigin_Requested::total            0                       # Table walker requests started/completed, data/inst
system.cpu.dtb.walker.walkRequestOrigin_Completed::Data            0                       # Table walker requests started/completed, data/inst
system.cpu.dtb.walker.walkRequestOrigin_Completed::Inst            0                       # Table walker requests started/completed, data/inst
system.cpu.dtb.walker.walkRequestOrigin_Completed::total            0                       # Table walker requests started/completed, data/inst
system.cpu.dtb.walker.walkRequestOrigin::total            0                       # Table walker requests started/completed, data/inst
system.cpu.dtb.walker.walks                         0                       # Table walker walks requested
system.cpu.dtb.write_accesses                       0                       # DTB write accesses
system.cpu.dtb.write_hits                           0                       # DTB write hits
system.cpu.dtb.write_misses                         0                       # DTB write misses
system.cpu.fetch2.amo_instructions                  0                       # Number of memory atomic instructions successfully decoded
system.cpu.fetch2.fp_instructions                   0                       # Number of floating point instructions successfully decoded
system.cpu.fetch2.int_instructions           42610574                       # Number of integer instructions successfully decoded
system.cpu.fetch2.load_instructions          43403318                       # Number of memory load instructions successfully decoded
system.cpu.fetch2.store_instructions         11001630                       # Number of memory store instructions successfully decoded
system.cpu.fetch2.vec_instructions                  0                       # Number of SIMD instructions successfully decoded
system.cpu.idleCycles                        34230951                       # Total number of cycles that the object has spent stopped
system.cpu.ipc                               0.599667                       # IPC: instructions per cycle
system.cpu.itb.accesses                             0                       # DTB accesses
system.cpu.itb.align_faults                         0                       # Number of TLB faults due to alignment restrictions
system.cpu.itb.domain_faults                        0                       # Number of TLB faults due to domain restrictions
system.cpu.itb.flush_entries                        0                       # Number of entries that have been flushed from TLB
system.cpu.itb.flush_tlb                            0                       # Number of times complete TLB was flushed
system.cpu.itb.flush_tlb_asid                       0                       # Number of times TLB was flushed by ASID
system.cpu.itb.flush_tlb_mva                        0                       # Number of times TLB was flushed by MVA
system.cpu.itb.flush_tlb_mva_asid                   0                       # Number of times TLB was flushed by MVA & ASID
system.cpu.itb.hits                                 0                       # DTB hits
system.cpu.itb.inst_accesses                        0                       # ITB inst accesses
system.cpu.itb.inst_hits                            0                       # ITB inst hits
system.cpu.itb.inst_misses                          0                       # ITB inst misses
system.cpu.itb.misses                               0                       # DTB misses
system.cpu.itb.perms_faults                         0                       # Number of TLB faults due to permissions restrictions
system.cpu.itb.prefetch_faults                      0                       # Number of TLB faults due to prefetch
system.cpu.itb.read_accesses                        0                       # DTB read accesses
system.cpu.itb.read_hits                            0                       # DTB read hits
system.cpu.itb.read_misses                          0                       # DTB read misses
system.cpu.itb.stage2_mmu.stage2_tlb.accesses            0                       # DTB accesses
system.cpu.itb.stage2_mmu.stage2_tlb.align_faults            0                       # Number of TLB faults due to alignment restrictions
system.cpu.itb.stage2_mmu.stage2_tlb.domain_faults            0                       # Number of TLB faults due to domain restrictions
system.cpu.itb.stage2_mmu.stage2_tlb.flush_entries            0                       # Number of entries that have been flushed from TLB
system.cpu.itb.stage2_mmu.stage2_tlb.flush_tlb            0                       # Number of times complete TLB was flushed
system.cpu.itb.stage2_mmu.stage2_tlb.flush_tlb_asid            0                       # Number of times TLB was flushed by ASID
system.cpu.itb.stage2_mmu.stage2_tlb.flush_tlb_mva            0                       # Number of times TLB was flushed by MVA
system.cpu.itb.stage2_mmu.stage2_tlb.flush_tlb_mva_asid            0                       # Number of times TLB was flushed by MVA & ASID
system.cpu.itb.stage2_mmu.stage2_tlb.hits            0                       # DTB hits
system.cpu.itb.stage2_mmu.stage2_tlb.inst_accesses            0                       # ITB inst accesses
system.cpu.itb.stage2_mmu.stage2_tlb.inst_hits            0                       # ITB inst hits
system.cpu.itb.stage2_mmu.stage2_tlb.inst_misses            0                       # ITB inst misses
system.cpu.itb.stage2_mmu.stage2_tlb.misses            0                       # DTB misses
system.cpu.itb.stage2_mmu.stage2_tlb.perms_faults            0                       # Number of TLB faults due to permissions restrictions
system.cpu.itb.stage2_mmu.stage2_tlb.prefetch_faults            0                       # Number of TLB faults due to prefetch
system.cpu.itb.stage2_mmu.stage2_tlb.read_accesses            0                       # DTB read accesses
system.cpu.itb.stage2_mmu.stage2_tlb.read_hits            0                       # DTB read hits
system.cpu.itb.stage2_mmu.stage2_tlb.read_misses            0                       # DTB read misses
system.cpu.itb.stage2_mmu.stage2_tlb.walker.walkRequestOrigin_Requested::Data            0                       # Table walker requests started/completed, data/inst
system.cpu.itb.stage2_mmu.stage2_tlb.walker.walkRequestOrigin_Requested::Inst            0                       # Table walker requests started/completed, data/inst
system.cpu.itb.stage2_mmu.stage2_tlb.walker.walkRequestOrigin_Requested::total            0                       # Table walker requests started/completed, data/inst
system.cpu.itb.stage2_mmu.stage2_tlb.walker.walkRequestOrigin_Completed::Data            0                       # Table walker requests started/completed, data/inst
system.cpu.itb.stage2_mmu.stage2_tlb.walker.walkRequestOrigin_Completed::Inst            0                       # Table walker requests started/completed, data/inst
system.cpu.itb.stage2_mmu.stage2_tlb.walker.walkRequestOrigin_Completed::total            0                       # Table walker requests started/completed, data/inst
system.cpu.itb.stage2_mmu.stage2_tlb.walker.walkRequestOrigin::total            0                       # Table walker requests started/completed, data/inst
system.cpu.itb.stage2_mmu.stage2_tlb.walker.walks            0                       # Table walker walks requested
system.cpu.itb.stage2_mmu.stage2_tlb.write_accesses            0                       # DTB write accesses
system.cpu.itb.stage2_mmu.stage2_tlb.write_hits            0                       # DTB write hits
system.cpu.itb.stage2_mmu.stage2_tlb.write_misses            0                       # DTB write misses
system.cpu.itb.walker.walkRequestOrigin_Requested::Data            0                       # Table walker requests started/completed, data/inst
system.cpu.itb.walker.walkRequestOrigin_Requested::Inst            0                       # Table walker requests started/completed, data/inst
system.cpu.itb.walker.walkRequestOrigin_Requested::total            0                       # Table walker requests started/completed, data/inst
system.cpu.itb.walker.walkRequestOrigin_Completed::Data            0                       # Table walker requests started/completed, data/inst
system.cpu.itb.walker.walkRequestOrigin_Completed::Inst            0                       # Table walker requests started/completed, data/inst
system.cpu.itb.walker.walkRequestOrigin_Completed::total            0                       # Table walker requests started/completed, data/inst
system.cpu.itb.walker.walkRequestOrigin::total            0                       # Table walker requests started/completed, data/inst
system.cpu.itb.walker.walks                         0                       # Table walker walks requested
system.cpu.itb.write_accesses                       0                       # DTB write accesses
system.cpu.itb.write_hits                           0                       # DTB write hits
system.cpu.itb.write_misses                         0                       # DTB write misses
system.cpu.numCycles                        166759303                       # number of cpu cycles simulated
system.cpu.numFetchSuspends                         0                       # Number of times Execute suspended instruction fetching
system.cpu.numWorkItemsCompleted                    0                       # number of work items this cpu completed
system.cpu.numWorkItemsStarted                      0                       # number of work items this cpu started
system.cpu.op_class_0::No_OpClass                   0      0.00%      0.00% # Class of committed instruction
system.cpu.op_class_0::IntAlu                46531437     46.44%     46.44% # Class of committed instruction
system.cpu.op_class_0::IntMult                  20720      0.02%     46.46% # Class of committed instruction
system.cpu.op_class_0::IntDiv                       0      0.00%     46.46% # Class of committed instruction
system.cpu.op_class_0::FloatAdd                     0      0.00%     46.46% # Class of committed instruction
system.cpu.op_class_0::FloatCmp                     0      0.00%     46.46% # Class of committed instruction
system.cpu.op_class_0::FloatCvt                     0      0.00%     46.46% # Class of committed instruction
system.cpu.op_class_0::FloatMult                    0      0.00%     46.46% # Class of committed instruction
system.cpu.op_class_0::FloatMultAcc                 0      0.00%     46.46% # Class of committed instruction
system.cpu.op_class_0::FloatDiv                     0      0.00%     46.46% # Class of committed instruction
system.cpu.op_class_0::FloatMisc                    0      0.00%     46.46% # Class of committed instruction
system.cpu.op_class_0::FloatSqrt                    0      0.00%     46.46% # Class of committed instruction
system.cpu.op_class_0::SimdAdd                      0      0.00%     46.46% # Class of committed instruction
system.cpu.op_class_0::SimdAddAcc                   0      0.00%     46.46% # Class of committed instruction
system.cpu.op_class_0::SimdAlu                      0      0.00%     46.46% # Class of committed instruction
system.cpu.op_class_0::SimdCmp                      0      0.00%     46.46% # Class of committed instruction
system.cpu.op_class_0::SimdCvt                      0      0.00%     46.46% # Class of committed instruction
system.cpu.op_class_0::SimdMisc                     0      0.00%     46.46% # Class of committed instruction
system.cpu.op_class_0::SimdMult                     0      0.00%     46.46% # Class of committed instruction
system.cpu.op_class_0::SimdMultAcc                  0      0.00%     46.46% # Class of committed instruction
system.cpu.op_class_0::SimdShift                    0      0.00%     46.46% # Class of committed instruction
system.cpu.op_class_0::SimdShiftAcc                 0      0.00%     46.46% # Class of committed instruction
system.cpu.op_class_0::SimdDiv                      0      0.00%     46.46% # Class of committed instruction
system.cpu.op_class_0::SimdSqrt                     0      0.00%     46.46% # Class of committed instruction
system.cpu.op_class_0::SimdFloatAdd                 0      0.00%     46.46% # Class of committed instruction
system.cpu.op_class_0::SimdFloatAlu                 0      0.00%     46.46% # Class of committed instruction
system.cpu.op_class_0::SimdFloatCmp                 0      0.00%     46.46% # Class of committed instruction
system.cpu.op_class_0::SimdFloatCvt                 0      0.00%     46.46% # Class of committed instruction
system.cpu.op_class_0::SimdFloatDiv                 0      0.00%     46.46% # Class of committed instruction
system.cpu.op_class_0::SimdFloatMisc               18      0.00%     46.46% # Class of committed instruction
system.cpu.op_class_0::SimdFloatMult                0      0.00%     46.46% # Class of committed instruction
system.cpu.op_class_0::SimdFloatMultAcc             0      0.00%     46.46% # Class of committed instruction
system.cpu.op_class_0::SimdFloatSqrt                0      0.00%     46.46% # Class of committed instruction
system.cpu.op_class_0::SimdReduceAdd                0      0.00%     46.46% # Class of committed instruction
system.cpu.op_class_0::SimdReduceAlu                0      0.00%     46.46% # Class of committed instruction
system.cpu.op_class_0::SimdReduceCmp                0      0.00%     46.46% # Class of committed instruction
system.cpu.op_class_0::SimdFloatReduceAdd            0      0.00%     46.46% # Class of committed instruction
system.cpu.op_class_0::SimdFloatReduceCmp            0      0.00%     46.46% # Class of committed instruction
system.cpu.op_class_0::SimdAes                      0      0.00%     46.46% # Class of committed instruction
system.cpu.op_class_0::SimdAesMix                   0      0.00%     46.46% # Class of committed instruction
system.cpu.op_class_0::SimdSha1Hash                 0      0.00%     46.46% # Class of committed instruction
system.cpu.op_class_0::SimdSha1Hash2                0      0.00%     46.46% # Class of committed instruction
system.cpu.op_class_0::SimdSha256Hash               0      0.00%     46.46% # Class of committed instruction
system.cpu.op_class_0::SimdSha256Hash2              0      0.00%     46.46% # Class of committed instruction
system.cpu.op_class_0::SimdShaSigma2                0      0.00%     46.46% # Class of committed instruction
system.cpu.op_class_0::SimdShaSigma3                0      0.00%     46.46% # Class of committed instruction
system.cpu.op_class_0::SimdPredAlu                  0      0.00%     46.46% # Class of committed instruction
system.cpu.op_class_0::MemRead               42693580     42.61%     89.07% # Class of committed instruction
system.cpu.op_class_0::MemWrite              10950614     10.93%    100.00% # Class of committed instruction
system.cpu.op_class_0::FloatMemRead                 0      0.00%    100.00% # Class of committed instruction
system.cpu.op_class_0::FloatMemWrite                0      0.00%    100.00% # Class of committed instruction
system.cpu.op_class_0::IprAccess                    0      0.00%    100.00% # Class of committed instruction
system.cpu.op_class_0::InstPrefetch                 0      0.00%    100.00% # Class of committed instruction
system.cpu.op_class_0::total                100196369                       # Class of committed instruction
system.cpu.tickCycles                       132528352                       # Number of cycles that the object actually ticked
system.cpu.workload.numSyscalls                    84                       # Number of system calls
system.membus.snoop_filter.hit_multi_requests            0                       # Number of requests hitting in the snoop filter with multiple (>1) holders of the requested data.
system.membus.snoop_filter.hit_multi_snoops            0                       # Number of snoops hitting in the snoop filter with multiple (>1) holders of the requested data.
system.membus.snoop_filter.hit_single_requests       106636                       # Number of requests hitting in the snoop filter with a single holder of the requested data.
system.membus.snoop_filter.hit_single_snoops            0                       # Number of snoops hitting in the snoop filter with a single holder of the requested data.
system.membus.snoop_filter.tot_requests        229836                       # Total number of requests made to the snoop filter.
system.membus.snoop_filter.tot_snoops               0                       # Total number of snoops made to the snoop filter.
system.tol2bus.snoop_filter.hit_multi_requests          168                       # Number of requests hitting in the snoop filter with multiple (>1) holders of the requested data.
system.tol2bus.snoop_filter.hit_multi_snoops            0                       # Number of snoops hitting in the snoop filter with multiple (>1) holders of the requested data.
system.tol2bus.snoop_filter.hit_single_requests       708553                       # Number of requests hitting in the snoop filter with a single holder of the requested data.
system.tol2bus.snoop_filter.hit_single_snoops          301                       # Number of snoops hitting in the snoop filter with a single holder of the requested data.
system.tol2bus.snoop_filter.tot_requests      1417857                       # Total number of requests made to the snoop filter.
system.tol2bus.snoop_filter.tot_snoops            301                       # Total number of snoops made to the snoop filter.
system.membus.pwrStateResidencyTicks::UNDEFINED  83379651500                       # Cumulative time (in ticks) in various power states
system.membus.trans_dist::ReadResp              38188                       # Transaction distribution
system.membus.trans_dist::WritebackDirty        72766                       # Transaction distribution
system.membus.trans_dist::CleanEvict            33862                       # Transaction distribution
system.membus.trans_dist::ReadExReq             85020                       # Transaction distribution
system.membus.trans_dist::ReadExResp            85019                       # Transaction distribution
system.membus.trans_dist::ReadSharedReq         38188                       # Transaction distribution
system.membus.pkt_count_system.l2.mem_side::system.mem_ctrls.port       353043                       # Packet count per connected master and slave (bytes)
system.membus.pkt_count::total                 353043                       # Packet count per connected master and slave (bytes)
system.membus.pkt_size_system.l2.mem_side::system.mem_ctrls.port     25084544                       # Cumulative packet size per connected master and slave (bytes)
system.membus.pkt_size::total                25084544                       # Cumulative packet size per connected master and slave (bytes)
system.membus.snoops                                0                       # Total snoops (count)
system.membus.snoopTraffic                          0                       # Total snoop traffic (bytes)
system.membus.snoop_fanout::samples            123208                       # Request fanout histogram
system.membus.snoop_fanout::mean                    0                       # Request fanout histogram
system.membus.snoop_fanout::stdev                   0                       # Request fanout histogram
system.membus.snoop_fanout::underflows              0      0.00%      0.00% # Request fanout histogram
system.membus.snoop_fanout::0                  123208    100.00%    100.00% # Request fanout histogram
system.membus.snoop_fanout::1                       0      0.00%    100.00% # Request fanout histogram
system.membus.snoop_fanout::overflows               0      0.00%    100.00% # Request fanout histogram
system.membus.snoop_fanout::min_value               0                       # Request fanout histogram
system.membus.snoop_fanout::max_value               0                       # Request fanout histogram
system.membus.snoop_fanout::total              123208                       # Request fanout histogram
system.membus.respLayer1.occupancy         1152067250                       # Layer occupancy (ticks)
system.membus.respLayer1.utilization              1.4                       # Layer utilization (%)
system.membus.reqLayer0.occupancy           840740500                       # Layer occupancy (ticks)
system.membus.reqLayer0.utilization               1.0                       # Layer utilization (%)
system.tol2bus.pwrStateResidencyTicks::UNDEFINED  83379651500                       # Cumulative time (in ticks) in various power states
system.tol2bus.trans_dist::ReadResp            420054                       # Transaction distribution
system.tol2bus.trans_dist::WritebackDirty       730270                       # Transaction distribution
system.tol2bus.trans_dist::WritebackClean          304                       # Transaction distribution
system.tol2bus.trans_dist::CleanEvict           84907                       # Transaction distribution
system.tol2bus.trans_dist::ReadExReq           289250                       # Transaction distribution
system.tol2bus.trans_dist::ReadExResp          289249                       # Transaction distribution
system.tol2bus.trans_dist::ReadCleanReq           542                       # Transaction distribution
system.tol2bus.trans_dist::ReadSharedReq       419512                       # Transaction distribution
system.tol2bus.pkt_count_system.cpu.icache.mem_side::system.l2.cpu_side         1388                       # Packet count per connected master and slave (bytes)
system.tol2bus.pkt_count_system.cpu.dcache.mem_side::system.l2.cpu_side      2125772                       # Packet count per connected master and slave (bytes)
system.tol2bus.pkt_count::total               2127160                       # Packet count per connected master and slave (bytes)
system.tol2bus.pkt_size_system.cpu.icache.mem_side::system.l2.cpu_side       108288                       # Cumulative packet size per connected master and slave (bytes)
system.tol2bus.pkt_size_system.cpu.dcache.mem_side::system.l2.cpu_side    174881920                       # Cumulative packet size per connected master and slave (bytes)
system.tol2bus.pkt_size::total              174990208                       # Cumulative packet size per connected master and slave (bytes)
system.tol2bus.snoops                          106928                       # Total snoops (count)
system.tol2bus.snoopTraffic                   9314048                       # Total snoop traffic (bytes)
system.tol2bus.snoop_fanout::samples           816232                       # Request fanout histogram
system.tol2bus.snoop_fanout::mean            0.000575                       # Request fanout histogram
system.tol2bus.snoop_fanout::stdev           0.023964                       # Request fanout histogram
system.tol2bus.snoop_fanout::underflows             0      0.00%      0.00% # Request fanout histogram
system.tol2bus.snoop_fanout::0                 815763     99.94%     99.94% # Request fanout histogram
system.tol2bus.snoop_fanout::1                    469      0.06%    100.00% # Request fanout histogram
system.tol2bus.snoop_fanout::2                      0      0.00%    100.00% # Request fanout histogram
system.tol2bus.snoop_fanout::overflows              0      0.00%    100.00% # Request fanout histogram
system.tol2bus.snoop_fanout::min_value              0                       # Request fanout histogram
system.tol2bus.snoop_fanout::max_value              1                       # Request fanout histogram
system.tol2bus.snoop_fanout::total             816232                       # Request fanout histogram
system.tol2bus.reqLayer0.occupancy         2024544500                       # Layer occupancy (ticks)
system.tol2bus.reqLayer0.utilization              2.4                       # Layer utilization (%)
system.tol2bus.respLayer1.occupancy        1771904995                       # Layer occupancy (ticks)
system.tol2bus.respLayer1.utilization             2.1                       # Layer utilization (%)
system.tol2bus.respLayer0.occupancy           1355000                       # Layer occupancy (ticks)
system.tol2bus.respLayer0.utilization             0.0                       # Layer utilization (%)
system.voltage_domain.voltage                       1                       # Voltage in Volts
system.clk_domain.clock                          1000                       # Clock period in ticks
system.l2.pwrStateResidencyTicks::UNDEFINED  83379651500                       # Cumulative time (in ticks) in various power states
system.l2.demand_hits::.cpu.inst                  124                       # number of demand (read+write) hits
system.l2.demand_hits::.cpu.data               585967                       # number of demand (read+write) hits
system.l2.demand_hits::total                   586091                       # number of demand (read+write) hits
system.l2.overall_hits::.cpu.inst                 124                       # number of overall hits
system.l2.overall_hits::.cpu.data              585967                       # number of overall hits
system.l2.overall_hits::total                  586091                       # number of overall hits
system.l2.demand_misses::.cpu.inst                418                       # number of demand (read+write) misses
system.l2.demand_misses::.cpu.data             122795                       # number of demand (read+write) misses
system.l2.demand_misses::total                 123213                       # number of demand (read+write) misses
system.l2.overall_misses::.cpu.inst               418                       # number of overall misses
system.l2.overall_misses::.cpu.data            122795                       # number of overall misses
system.l2.overall_misses::total                123213                       # number of overall misses
system.l2.demand_miss_latency::.cpu.inst     35866000                       # number of demand (read+write) miss cycles
system.l2.demand_miss_latency::.cpu.data  11251672500                       # number of demand (read+write) miss cycles
system.l2.demand_miss_latency::total      11287538500                       # number of demand (read+write) miss cycles
system.l2.overall_miss_latency::.cpu.inst     35866000                       # number of overall miss cycles
system.l2.overall_miss_latency::.cpu.data  11251672500                       # number of overall miss cycles
system.l2.overall_miss_latency::total     11287538500                       # number of overall miss cycles
system.l2.demand_accesses::.cpu.inst              542                       # number of demand (read+write) accesses
system.l2.demand_accesses::.cpu.data           708762                       # number of demand (read+write) accesses
system.l2.demand_accesses::total               709304                       # number of demand (read+write) accesses
system.l2.overall_accesses::.cpu.inst             542                       # number of overall (read+write) accesses
system.l2.overall_accesses::.cpu.data          708762                       # number of overall (read+write) accesses
system.l2.overall_accesses::total              709304                       # number of overall (read+write) accesses
system.l2.demand_miss_rate::.cpu.inst        0.771218                       # miss rate for demand accesses
system.l2.demand_miss_rate::.cpu.data        0.173253                       # miss rate for demand accesses
system.l2.demand_miss_rate::total            0.173710                       # miss rate for demand accesses
system.l2.overall_miss_rate::.cpu.inst       0.771218                       # miss rate for overall accesses
system.l2.overall_miss_rate::.cpu.data       0.173253                       # miss rate for overall accesses
system.l2.overall_miss_rate::total           0.173710                       # miss rate for overall accesses
system.l2.demand_avg_miss_latency::.cpu.inst 85803.827751                       # average overall miss latency
system.l2.demand_avg_miss_latency::.cpu.data 91629.728409                       # average overall miss latency
system.l2.demand_avg_miss_latency::total 91609.964046                       # average overall miss latency
system.l2.overall_avg_miss_latency::.cpu.inst 85803.827751                       # average overall miss latency
system.l2.overall_avg_miss_latency::.cpu.data 91629.728409                       # average overall miss latency
system.l2.overall_avg_miss_latency::total 91609.964046                       # average overall miss latency
system.l2.blocked_cycles::no_mshrs                  0                       # number of cycles access was blocked
system.l2.blocked_cycles::no_targets                0                       # number of cycles access was blocked
system.l2.blocked::no_mshrs                         0                       # number of cycles access was blocked
system.l2.blocked::no_targets                       0                       # number of cycles access was blocked
system.l2.avg_blocked_cycles::no_mshrs            nan                       # average number of cycles each access was blocked
system.l2.avg_blocked_cycles::no_targets          nan                       # average number of cycles each access was blocked
system.l2.writebacks::.writebacks               72766                       # number of writebacks
system.l2.writebacks::total                     72766                       # number of writebacks
system.l2.demand_mshr_hits::.cpu.data               5                       # number of demand (read+write) MSHR hits
system.l2.demand_mshr_hits::total                   5                       # number of demand (read+write) MSHR hits
system.l2.overall_mshr_hits::.cpu.data              5                       # number of overall MSHR hits
system.l2.overall_mshr_hits::total                  5                       # number of overall MSHR hits
system.l2.demand_mshr_misses::.cpu.inst           418                       # number of demand (read+write) MSHR misses
system.l2.demand_mshr_misses::.cpu.data        122790                       # number of demand (read+write) MSHR misses
system.l2.demand_mshr_misses::total            123208                       # number of demand (read+write) MSHR misses
system.l2.overall_mshr_misses::.cpu.inst          418                       # number of overall MSHR misses
system.l2.overall_mshr_misses::.cpu.data       122790                       # number of overall MSHR misses
system.l2.overall_mshr_misses::total           123208                       # number of overall MSHR misses
system.l2.demand_mshr_miss_latency::.cpu.inst     31686000                       # number of demand (read+write) MSHR miss cycles
system.l2.demand_mshr_miss_latency::.cpu.data  10023419000                       # number of demand (read+write) MSHR miss cycles
system.l2.demand_mshr_miss_latency::total  10055105000                       # number of demand (read+write) MSHR miss cycles
system.l2.overall_mshr_miss_latency::.cpu.inst     31686000                       # number of overall MSHR miss cycles
system.l2.overall_mshr_miss_latency::.cpu.data  10023419000                       # number of overall MSHR miss cycles
system.l2.overall_mshr_miss_latency::total  10055105000                       # number of overall MSHR miss cycles
system.l2.demand_mshr_miss_rate::.cpu.inst     0.771218                       # mshr miss rate for demand accesses
system.l2.demand_mshr_miss_rate::.cpu.data     0.173246                       # mshr miss rate for demand accesses
system.l2.demand_mshr_miss_rate::total       0.173703                       # mshr miss rate for demand accesses
system.l2.overall_mshr_miss_rate::.cpu.inst     0.771218                       # mshr miss rate for overall accesses
system.l2.overall_mshr_miss_rate::.cpu.data     0.173246                       # mshr miss rate for overall accesses
system.l2.overall_mshr_miss_rate::total      0.173703                       # mshr miss rate for overall accesses
system.l2.demand_avg_mshr_miss_latency::.cpu.inst 75803.827751                       # average overall mshr miss latency
system.l2.demand_avg_mshr_miss_latency::.cpu.data 81630.580666                       # average overall mshr miss latency
system.l2.demand_avg_mshr_miss_latency::total 81610.812610                       # average overall mshr miss latency
system.l2.overall_avg_mshr_miss_latency::.cpu.inst 75803.827751                       # average overall mshr miss latency
system.l2.overall_avg_mshr_miss_latency::.cpu.data 81630.580666                       # average overall mshr miss latency
system.l2.overall_avg_mshr_miss_latency::total 81610.812610                       # average overall mshr miss latency
system.l2.replacements                         106928                       # number of replacements
system.l2.WritebackDirty_hits::.writebacks       657504                       # number of WritebackDirty hits
system.l2.WritebackDirty_hits::total           657504                       # number of WritebackDirty hits
system.l2.WritebackDirty_accesses::.writebacks       657504                       # number of WritebackDirty accesses(hits+misses)
system.l2.WritebackDirty_accesses::total       657504                       # number of WritebackDirty accesses(hits+misses)
system.l2.WritebackClean_hits::.writebacks          291                       # number of WritebackClean hits
system.l2.WritebackClean_hits::total              291                       # number of WritebackClean hits
system.l2.WritebackClean_accesses::.writebacks          291                       # number of WritebackClean accesses(hits+misses)
system.l2.WritebackClean_accesses::total          291                       # number of WritebackClean accesses(hits+misses)
system.l2.CleanEvict_mshr_misses::.writebacks            1                       # number of CleanEvict MSHR misses
system.l2.CleanEvict_mshr_misses::total             1                       # number of CleanEvict MSHR misses
system.l2.CleanEvict_mshr_miss_rate::.writebacks          inf                       # mshr miss rate for CleanEvict accesses
system.l2.CleanEvict_mshr_miss_rate::total          inf                       # mshr miss rate for CleanEvict accesses
system.l2.ReadExReq_hits::.cpu.data            204230                       # number of ReadExReq hits
system.l2.ReadExReq_hits::total                204230                       # number of ReadExReq hits
system.l2.ReadExReq_misses::.cpu.data           85020                       # number of ReadExReq misses
system.l2.ReadExReq_misses::total               85020                       # number of ReadExReq misses
system.l2.ReadExReq_miss_latency::.cpu.data   7936036000                       # number of ReadExReq miss cycles
system.l2.ReadExReq_miss_latency::total    7936036000                       # number of ReadExReq miss cycles
system.l2.ReadExReq_accesses::.cpu.data        289250                       # number of ReadExReq accesses(hits+misses)
system.l2.ReadExReq_accesses::total            289250                       # number of ReadExReq accesses(hits+misses)
system.l2.ReadExReq_miss_rate::.cpu.data     0.293933                       # miss rate for ReadExReq accesses
system.l2.ReadExReq_miss_rate::total         0.293933                       # miss rate for ReadExReq accesses
system.l2.ReadExReq_avg_miss_latency::.cpu.data 93343.166314                       # average ReadExReq miss latency
system.l2.ReadExReq_avg_miss_latency::total 93343.166314                       # average ReadExReq miss latency
system.l2.ReadExReq_mshr_misses::.cpu.data        85020                       # number of ReadExReq MSHR misses
system.l2.ReadExReq_mshr_misses::total          85020                       # number of ReadExReq MSHR misses
system.l2.ReadExReq_mshr_miss_latency::.cpu.data   7085846000                       # number of ReadExReq MSHR miss cycles
system.l2.ReadExReq_mshr_miss_latency::total   7085846000                       # number of ReadExReq MSHR miss cycles
system.l2.ReadExReq_mshr_miss_rate::.cpu.data     0.293933                       # mshr miss rate for ReadExReq accesses
system.l2.ReadExReq_mshr_miss_rate::total     0.293933                       # mshr miss rate for ReadExReq accesses
system.l2.ReadExReq_avg_mshr_miss_latency::.cpu.data 83343.283933                       # average ReadExReq mshr miss latency
system.l2.ReadExReq_avg_mshr_miss_latency::total 83343.283933                       # average ReadExReq mshr miss latency
system.l2.ReadCleanReq_hits::.cpu.inst            124                       # number of ReadCleanReq hits
system.l2.ReadCleanReq_hits::total                124                       # number of ReadCleanReq hits
system.l2.ReadCleanReq_misses::.cpu.inst          418                       # number of ReadCleanReq misses
system.l2.ReadCleanReq_misses::total              418                       # number of ReadCleanReq misses
system.l2.ReadCleanReq_miss_latency::.cpu.inst     35866000                       # number of ReadCleanReq miss cycles
system.l2.ReadCleanReq_miss_latency::total     35866000                       # number of ReadCleanReq miss cycles
system.l2.ReadCleanReq_accesses::.cpu.inst          542                       # number of ReadCleanReq accesses(hits+misses)
system.l2.ReadCleanReq_accesses::total            542                       # number of ReadCleanReq accesses(hits+misses)
system.l2.ReadCleanReq_miss_rate::.cpu.inst     0.771218                       # miss rate for ReadCleanReq accesses
system.l2.ReadCleanReq_miss_rate::total      0.771218                       # miss rate for ReadCleanReq accesses
system.l2.ReadCleanReq_avg_miss_latency::.cpu.inst 85803.827751                       # average ReadCleanReq miss latency
system.l2.ReadCleanReq_avg_miss_latency::total 85803.827751                       # average ReadCleanReq miss latency
system.l2.ReadCleanReq_mshr_misses::.cpu.inst          418                       # number of ReadCleanReq MSHR misses
system.l2.ReadCleanReq_mshr_misses::total          418                       # number of ReadCleanReq MSHR misses
system.l2.ReadCleanReq_mshr_miss_latency::.cpu.inst     31686000                       # number of ReadCleanReq MSHR miss cycles
system.l2.ReadCleanReq_mshr_miss_latency::total     31686000                       # number of ReadCleanReq MSHR miss cycles
system.l2.ReadCleanReq_mshr_miss_rate::.cpu.inst     0.771218                       # mshr miss rate for ReadCleanReq accesses
system.l2.ReadCleanReq_mshr_miss_rate::total     0.771218                       # mshr miss rate for ReadCleanReq accesses
system.l2.ReadCleanReq_avg_mshr_miss_latency::.cpu.inst 75803.827751                       # average ReadCleanReq mshr miss latency
system.l2.ReadCleanReq_avg_mshr_miss_latency::total 75803.827751                       # average ReadCleanReq mshr miss latency
system.l2.ReadSharedReq_hits::.cpu.data        381737                       # number of ReadSharedReq hits
system.l2.ReadSharedReq_hits::total            381737                       # number of ReadSharedReq hits
system.l2.ReadSharedReq_misses::.cpu.data        37775                       # number of ReadSharedReq misses
system.l2.ReadSharedReq_misses::total           37775                       # number of ReadSharedReq misses
system.l2.ReadSharedReq_miss_latency::.cpu.data   3315636500                       # number of ReadSharedReq miss cycles
system.l2.ReadSharedReq_miss_latency::total   3315636500                       # number of ReadSharedReq miss cycles
system.l2.ReadSharedReq_accesses::.cpu.data       419512                       # number of ReadSharedReq accesses(hits+misses)
system.l2.ReadSharedReq_accesses::total        419512                       # number of ReadSharedReq accesses(hits+misses)
system.l2.ReadSharedReq_miss_rate::.cpu.data     0.090045                       # miss rate for ReadSharedReq accesses
system.l2.ReadSharedReq_miss_rate::total     0.090045                       # miss rate for ReadSharedReq accesses
system.l2.ReadSharedReq_avg_miss_latency::.cpu.data 87773.302449                       # average ReadSharedReq miss latency
system.l2.ReadSharedReq_avg_miss_latency::total 87773.302449                       # average ReadSharedReq miss latency
system.l2.ReadSharedReq_mshr_hits::.cpu.data            5                       # number of ReadSharedReq MSHR hits
system.l2.ReadSharedReq_mshr_hits::total            5                       # number of ReadSharedReq MSHR hits
system.l2.ReadSharedReq_mshr_misses::.cpu.data        37770                       # number of ReadSharedReq MSHR misses
system.l2.ReadSharedReq_mshr_misses::total        37770                       # number of ReadSharedReq MSHR misses
system.l2.ReadSharedReq_mshr_miss_latency::.cpu.data   2937573000                       # number of ReadSharedReq MSHR miss cycles
system.l2.ReadSharedReq_mshr_miss_latency::total   2937573000                       # number of ReadSharedReq MSHR miss cycles
system.l2.ReadSharedReq_mshr_miss_rate::.cpu.data     0.090033                       # mshr miss rate for ReadSharedReq accesses
system.l2.ReadSharedReq_mshr_miss_rate::total     0.090033                       # mshr miss rate for ReadSharedReq accesses
system.l2.ReadSharedReq_avg_mshr_miss_latency::.cpu.data 77775.297855                       # average ReadSharedReq mshr miss latency
system.l2.ReadSharedReq_avg_mshr_miss_latency::total 77775.297855                       # average ReadSharedReq mshr miss latency
system.l2.tags.pwrStateResidencyTicks::UNDEFINED  83379651500                       # Cumulative time (in ticks) in various power states
system.l2.tags.tagsinuse                 15944.415691                       # Cycle average of tags in use
system.l2.tags.total_refs                     1417682                       # Total number of references to valid blocks.
system.l2.tags.sampled_refs                    123312                       # Sample count of references to valid blocks.
system.l2.tags.avg_refs                     11.496708                       # Average number of references to valid blocks.
system.l2.tags.warmup_cycle                     82000                       # Cycle when the warmup percentage was hit.
system.l2.tags.occ_blocks::.writebacks      38.605219                       # Average occupied blocks per requestor
system.l2.tags.occ_blocks::.cpu.inst        52.064874                       # Average occupied blocks per requestor
system.l2.tags.occ_blocks::.cpu.data     15853.745598                       # Average occupied blocks per requestor
system.l2.tags.occ_percent::.writebacks      0.002356                       # Average percentage of cache occupancy
system.l2.tags.occ_percent::.cpu.inst        0.003178                       # Average percentage of cache occupancy
system.l2.tags.occ_percent::.cpu.data        0.967636                       # Average percentage of cache occupancy
system.l2.tags.occ_percent::total            0.973170                       # Average percentage of cache occupancy
system.l2.tags.occ_task_id_blocks::1024         16384                       # Occupied blocks per task id
system.l2.tags.age_task_id_blocks_1024::0           44                       # Occupied blocks per task id
system.l2.tags.age_task_id_blocks_1024::1           62                       # Occupied blocks per task id
system.l2.tags.age_task_id_blocks_1024::2          646                       # Occupied blocks per task id
system.l2.tags.age_task_id_blocks_1024::3         9229                       # Occupied blocks per task id
system.l2.tags.age_task_id_blocks_1024::4         6403                       # Occupied blocks per task id
system.l2.tags.occ_task_id_percent::1024            1                       # Percentage of cache occupancy per task id
system.l2.tags.tag_accesses                  22806336                       # Number of tag accesses
system.l2.tags.data_accesses                 22806336                       # Number of data accesses
system.cpu_voltage_domain.voltage                   1                       # Voltage in Volts
system.mem_ctrls.pwrStateResidencyTicks::UNDEFINED  83379651500                       # Cumulative time (in ticks) in various power states
system.mem_ctrls.bytes_read::.cpu.inst          53504                       # Number of bytes read from this memory
system.mem_ctrls.bytes_read::.cpu.data       15716992                       # Number of bytes read from this memory
system.mem_ctrls.bytes_read::total           15770496                       # Number of bytes read from this memory
system.mem_ctrls.bytes_inst_read::.cpu.inst        53504                       # Number of instructions bytes read from this memory
system.mem_ctrls.bytes_inst_read::total         53504                       # Number of instructions bytes read from this memory
system.mem_ctrls.bytes_written::.writebacks      9314048                       # Number of bytes written to this memory
system.mem_ctrls.bytes_written::total         9314048                       # Number of bytes written to this memory
system.mem_ctrls.num_reads::.cpu.inst             418                       # Number of read requests responded to by this memory
system.mem_ctrls.num_reads::.cpu.data          122789                       # Number of read requests responded to by this memory
system.mem_ctrls.num_reads::total              123207                       # Number of read requests responded to by this memory
system.mem_ctrls.num_writes::.writebacks        72766                       # Number of write requests responded to by this memory
system.mem_ctrls.num_writes::total              72766                       # Number of write requests responded to by this memory
system.mem_ctrls.bw_read::.cpu.inst            641691                       # Total read bandwidth from this memory (bytes/s)
system.mem_ctrls.bw_read::.cpu.data         188499133                       # Total read bandwidth from this memory (bytes/s)
system.mem_ctrls.bw_read::total             189140824                       # Total read bandwidth from this memory (bytes/s)
system.mem_ctrls.bw_inst_read::.cpu.inst       641691                       # Instruction read bandwidth from this memory (bytes/s)
system.mem_ctrls.bw_inst_read::total           641691                       # Instruction read bandwidth from this memory (bytes/s)
system.mem_ctrls.bw_write::.writebacks      111706488                       # Write bandwidth from this memory (bytes/s)
system.mem_ctrls.bw_write::total            111706488                       # Write bandwidth from this memory (bytes/s)
system.mem_ctrls.bw_total::.writebacks      111706488                       # Total bandwidth to/from this memory (bytes/s)
system.mem_ctrls.bw_total::.cpu.inst           641691                       # Total bandwidth to/from this memory (bytes/s)
system.mem_ctrls.bw_total::.cpu.data        188499133                       # Total bandwidth to/from this memory (bytes/s)
system.mem_ctrls.bw_total::total            300847312                       # Total bandwidth to/from this memory (bytes/s)
system.mem_ctrls.avgPriority_.writebacks::samples    145532.00                       # Average QoS priority value for accepted requests
system.mem_ctrls.avgPriority_.cpu.inst::samples       836.00                       # Average QoS priority value for accepted requests
system.mem_ctrls.avgPriority_.cpu.data::samples    245568.00                       # Average QoS priority value for accepted requests
system.mem_ctrls.priorityMinLatency      0.000000018750                       # per QoS priority minimum request to response latency (s)
system.mem_ctrls.priorityMaxLatency      0.006629478750                       # per QoS priority maximum request to response latency (s)
system.mem_ctrls.numReadWriteTurnArounds         8780                       # Number of turnarounds from READ to WRITE
system.mem_ctrls.numWriteReadTurnArounds         8780                       # Number of turnarounds from WRITE to READ
system.mem_ctrls.numStayReadState              450302                       # Number of times bus staying in READ state
system.mem_ctrls.numStayWriteState             136878                       # Number of times bus staying in WRITE state
system.mem_ctrls.readReqs                      123208                       # Number of read requests accepted
system.mem_ctrls.writeReqs                      72766                       # Number of write requests accepted
system.mem_ctrls.readBursts                    246416                       # Number of DRAM read bursts, including those serviced by the write queue
system.mem_ctrls.writeBursts                   145532                       # Number of DRAM write bursts, including those merged in the write queue
system.mem_ctrls.servicedByWrQ                     12                       # Number of DRAM read bursts serviced by the write queue
system.mem_ctrls.mergedWrBursts                     0                       # Number of DRAM write bursts merged with an existing one
system.mem_ctrls.neitherReadNorWriteReqs            0                       # Number of requests that are neither read nor write
system.mem_ctrls.perBankRdBursts::0             15900                       # Per bank write bursts
system.mem_ctrls.perBankRdBursts::1             15742                       # Per bank write bursts
system.mem_ctrls.perBankRdBursts::2             15802                       # Per bank write bursts
system.mem_ctrls.perBankRdBursts::3             15502                       # Per bank write bursts
system.mem_ctrls.perBankRdBursts::4             15376                       # Per bank write bursts
system.mem_ctrls.perBankRdBursts::5             15170                       # Per bank write bursts
system.mem_ctrls.perBankRdBursts::6             15128                       # Per bank write bursts
system.mem_ctrls.perBankRdBursts::7             15252                       # Per bank write bursts
system.mem_ctrls.perBankRdBursts::8             15218                       # Per bank write bursts
system.mem_ctrls.perBankRdBursts::9             15146                       # Per bank write bursts
system.mem_ctrls.perBankRdBursts::10            15162                       # Per bank write bursts
system.mem_ctrls.perBankRdBursts::11            15187                       # Per bank write bursts
system.mem_ctrls.perBankRdBursts::12            15422                       # Per bank write bursts
system.mem_ctrls.perBankRdBursts::13            15410                       # Per bank write bursts
system.mem_ctrls.perBankRdBursts::14            15486                       # Per bank write bursts
system.mem_ctrls.perBankRdBursts::15            15500                       # Per bank write bursts
system.mem_ctrls.perBankWrBursts::0              9350                       # Per bank write bursts
system.mem_ctrls.perBankWrBursts::1              9336                       # Per bank write bursts
system.mem_ctrls.perBankWrBursts::2              9370                       # Per bank write bursts
system.mem_ctrls.perBankWrBursts::3              9138                       # Per bank write bursts
system.mem_ctrls.perBankWrBursts::4              9128                       # Per bank write bursts
system.mem_ctrls.perBankWrBursts::5              9074                       # Per bank write bursts
system.mem_ctrls.perBankWrBursts::6              8990                       # Per bank write bursts
system.mem_ctrls.perBankWrBursts::7              8936                       # Per bank write bursts
system.mem_ctrls.perBankWrBursts::8              8954                       # Per bank write bursts
system.mem_ctrls.perBankWrBursts::9              8918                       # Per bank write bursts
system.mem_ctrls.perBankWrBursts::10             8982                       # Per bank write bursts
system.mem_ctrls.perBankWrBursts::11             8946                       # Per bank write bursts
system.mem_ctrls.perBankWrBursts::12             9040                       # Per bank write bursts
system.mem_ctrls.perBankWrBursts::13             9065                       # Per bank write bursts
system.mem_ctrls.perBankWrBursts::14             9154                       # Per bank write bursts
system.mem_ctrls.perBankWrBursts::15             9134                       # Per bank write bursts
system.mem_ctrls.avgRdQLen                       2.07                       # Average read queue length when enqueuing
system.mem_ctrls.avgWrQLen                      25.13                       # Average write queue length when enqueuing
system.mem_ctrls.totQLat                   4716003750                       # Total ticks spent queuing
system.mem_ctrls.totBusLat                 1232015000                       # Total ticks spent in databus transfers
system.mem_ctrls.totMemAccLat              9336060000                       # Total ticks spent from burst creation until serviced by the DRAM
system.mem_ctrls.avgQLat                     19139.31                       # Average queueing delay per DRAM burst
system.mem_ctrls.avgBusLat                    4999.98                       # Average bus latency per DRAM burst
system.mem_ctrls.avgMemAccLat                37889.24                       # Average memory access latency per DRAM burst
system.mem_ctrls.numRdRetry                         0                       # Number of times read queue was full causing retry
system.mem_ctrls.numWrRetry                         0                       # Number of times write queue was full causing retry
system.mem_ctrls.readRowHits                   203053                       # Number of row buffer hits during reads
system.mem_ctrls.writeRowHits                  116115                       # Number of row buffer hits during writes
system.mem_ctrls.readRowHitRate                 82.41                       # Row buffer hit rate for reads
system.mem_ctrls.writeRowHitRate                79.79                       # Row buffer hit rate for writes
system.mem_ctrls.readPktSize::0                     0                       # Read request sizes (log2)
system.mem_ctrls.readPktSize::1                     0                       # Read request sizes (log2)
system.mem_ctrls.readPktSize::2                     0                       # Read request sizes (log2)
system.mem_ctrls.readPktSize::3                     0                       # Read request sizes (log2)
system.mem_ctrls.readPktSize::4                     0                       # Read request sizes (log2)
system.mem_ctrls.readPktSize::5                     0                       # Read request sizes (log2)
system.mem_ctrls.readPktSize::6                246416                       # Read request sizes (log2)
system.mem_ctrls.writePktSize::0                    0                       # Write request sizes (log2)
system.mem_ctrls.writePktSize::1                    0                       # Write request sizes (log2)
system.mem_ctrls.writePktSize::2                    0                       # Write request sizes (log2)
system.mem_ctrls.writePktSize::3                    0                       # Write request sizes (log2)
system.mem_ctrls.writePktSize::4                    0                       # Write request sizes (log2)
system.mem_ctrls.writePktSize::5                    0                       # Write request sizes (log2)
system.mem_ctrls.writePktSize::6               145532                       # Write request sizes (log2)
system.mem_ctrls.rdQLenPdf::0                  103975                       # What read queue length does an incoming req see
system.mem_ctrls.rdQLenPdf::1                  104341                       # What read queue length does an incoming req see
system.mem_ctrls.rdQLenPdf::2                   19221                       # What read queue length does an incoming req see
system.mem_ctrls.rdQLenPdf::3                   18856                       # What read queue length does an incoming req see
system.mem_ctrls.rdQLenPdf::4                       5                       # What read queue length does an incoming req see
system.mem_ctrls.rdQLenPdf::5                       4                       # What read queue length does an incoming req see
system.mem_ctrls.rdQLenPdf::6                       1                       # What read queue length does an incoming req see
system.mem_ctrls.rdQLenPdf::7                       1                       # What read queue length does an incoming req see
system.mem_ctrls.rdQLenPdf::8                       0                       # What read queue length does an incoming req see
system.mem_ctrls.rdQLenPdf::9                       0                       # What read queue length does an incoming req see
system.mem_ctrls.rdQLenPdf::10                      0                       # What read queue length does an incoming req see
system.mem_ctrls.rdQLenPdf::11                      0                       # What read queue length does an incoming req see
system.mem_ctrls.rdQLenPdf::12                      0                       # What read queue length does an incoming req see
system.mem_ctrls.rdQLenPdf::13                      0                       # What read queue length does an incoming req see
system.mem_ctrls.rdQLenPdf::14                      0                       # What read queue length does an incoming req see
system.mem_ctrls.rdQLenPdf::15                      0                       # What read queue length does an incoming req see
system.mem_ctrls.rdQLenPdf::16                      0                       # What read queue length does an incoming req see
system.mem_ctrls.rdQLenPdf::17                      0                       # What read queue length does an incoming req see
system.mem_ctrls.rdQLenPdf::18                      0                       # What read queue length does an incoming req see
system.mem_ctrls.rdQLenPdf::19                      0                       # What read queue length does an incoming req see
system.mem_ctrls.rdQLenPdf::20                      0                       # What read queue length does an incoming req see
system.mem_ctrls.rdQLenPdf::21                      0                       # What read queue length does an incoming req see
system.mem_ctrls.rdQLenPdf::22                      0                       # What read queue length does an incoming req see
system.mem_ctrls.rdQLenPdf::23                      0                       # What read queue length does an incoming req see
system.mem_ctrls.rdQLenPdf::24                      0                       # What read queue length does an incoming req see
system.mem_ctrls.rdQLenPdf::25                      0                       # What read queue length does an incoming req see
system.mem_ctrls.rdQLenPdf::26                      0                       # What read queue length does an incoming req see
system.mem_ctrls.rdQLenPdf::27                      0                       # What read queue length does an incoming req see
system.mem_ctrls.rdQLenPdf::28                      0                       # What read queue length does an incoming req see
system.mem_ctrls.rdQLenPdf::29                      0                       # What read queue length does an incoming req see
system.mem_ctrls.rdQLenPdf::30                      0                       # What read queue length does an incoming req see
system.mem_ctrls.rdQLenPdf::31                      0                       # What read queue length does an incoming req see
system.mem_ctrls.wrQLenPdf::0                       1                       # What write queue length does an incoming req see
system.mem_ctrls.wrQLenPdf::1                       1                       # What write queue length does an incoming req see
system.mem_ctrls.wrQLenPdf::2                       1                       # What write queue length does an incoming req see
system.mem_ctrls.wrQLenPdf::3                       1                       # What write queue length does an incoming req see
system.mem_ctrls.wrQLenPdf::4                       1                       # What write queue length does an incoming req see
system.mem_ctrls.wrQLenPdf::5                       1                       # What write queue length does an incoming req see
system.mem_ctrls.wrQLenPdf::6                       1                       # What write queue length does an incoming req see
system.mem_ctrls.wrQLenPdf::7                       1                       # What write queue length does an incoming req see
system.mem_ctrls.wrQLenPdf::8                       1                       # What write queue length does an incoming req see
system.mem_ctrls.wrQLenPdf::9                       1                       # What write queue length does an incoming req see
system.mem_ctrls.wrQLenPdf::10                      1                       # What write queue length does an incoming req see
system.mem_ctrls.wrQLenPdf::11                      1                       # What write queue length does an incoming req see
system.mem_ctrls.wrQLenPdf::12                      1                       # What write queue length does an incoming req see
system.mem_ctrls.wrQLenPdf::13                      1                       # What write queue length does an incoming req see
system.mem_ctrls.wrQLenPdf::14                      1                       # What write queue length does an incoming req see
system.mem_ctrls.wrQLenPdf::15                   2272                       # What write queue length does an incoming req see
system.mem_ctrls.wrQLenPdf::16                   2305                       # What write queue length does an incoming req see
system.mem_ctrls.wrQLenPdf::17                   5491                       # What write queue length does an incoming req see
system.mem_ctrls.wrQLenPdf::18                   6563                       # What write queue length does an incoming req see
system.mem_ctrls.wrQLenPdf::19                   8367                       # What write queue length does an incoming req see
system.mem_ctrls.wrQLenPdf::20                   8896                       # What write queue length does an incoming req see
system.mem_ctrls.wrQLenPdf::21                   8874                       # What write queue length does an incoming req see
system.mem_ctrls.wrQLenPdf::22                   8864                       # What write queue length does an incoming req see
system.mem_ctrls.wrQLenPdf::23                   8860                       # What write queue length does an incoming req see
system.mem_ctrls.wrQLenPdf::24                   9320                       # What write queue length does an incoming req see
system.mem_ctrls.wrQLenPdf::25                  10495                       # What write queue length does an incoming req see
system.mem_ctrls.wrQLenPdf::26                  10118                       # What write queue length does an incoming req see
system.mem_ctrls.wrQLenPdf::27                   8937                       # What write queue length does an incoming req see
system.mem_ctrls.wrQLenPdf::28                   9072                       # What write queue length does an incoming req see
system.mem_ctrls.wrQLenPdf::29                   9083                       # What write queue length does an incoming req see
system.mem_ctrls.wrQLenPdf::30                   8827                       # What write queue length does an incoming req see
system.mem_ctrls.wrQLenPdf::31                   8794                       # What write queue length does an incoming req see
system.mem_ctrls.wrQLenPdf::32                   8789                       # What write queue length does an incoming req see
system.mem_ctrls.wrQLenPdf::33                   1585                       # What write queue length does an incoming req see
system.mem_ctrls.wrQLenPdf::34                      4                       # What write queue length does an incoming req see
system.mem_ctrls.wrQLenPdf::35                      1                       # What write queue length does an incoming req see
system.mem_ctrls.wrQLenPdf::36                      0                       # What write queue length does an incoming req see
system.mem_ctrls.wrQLenPdf::37                      0                       # What write queue length does an incoming req see
system.mem_ctrls.wrQLenPdf::38                      0                       # What write queue length does an incoming req see
system.mem_ctrls.wrQLenPdf::39                      0                       # What write queue length does an incoming req see
system.mem_ctrls.wrQLenPdf::40                      0                       # What write queue length does an incoming req see
system.mem_ctrls.wrQLenPdf::41                      0                       # What write queue length does an incoming req see
system.mem_ctrls.wrQLenPdf::42                      0                       # What write queue length does an incoming req see
system.mem_ctrls.wrQLenPdf::43                      0                       # What write queue length does an incoming req see
system.mem_ctrls.wrQLenPdf::44                      0                       # What write queue length does an incoming req see
system.mem_ctrls.wrQLenPdf::45                      0                       # What write queue length does an incoming req see
system.mem_ctrls.wrQLenPdf::46                      0                       # What write queue length does an incoming req see
system.mem_ctrls.wrQLenPdf::47                      0                       # What write queue length does an incoming req see
system.mem_ctrls.wrQLenPdf::48                      0                       # What write queue length does an incoming req see
system.mem_ctrls.wrQLenPdf::49                      0                       # What write queue length does an incoming req see
system.mem_ctrls.wrQLenPdf::50                      0                       # What write queue length does an incoming req see
system.mem_ctrls.wrQLenPdf::51                      0                       # What write queue length does an incoming req see
system.mem_ctrls.wrQLenPdf::52                      0                       # What write queue length does an incoming req see
system.mem_ctrls.wrQLenPdf::53                      0                       # What write queue length does an incoming req see
system.mem_ctrls.wrQLenPdf::54                      0                       # What write queue length does an incoming req see
system.mem_ctrls.wrQLenPdf::55                      0                       # What write queue length does an incoming req see
system.mem_ctrls.wrQLenPdf::56                      0                       # What write queue length does an incoming req see
system.mem_ctrls.wrQLenPdf::57                      0                       # What write queue length does an incoming req see
system.mem_ctrls.wrQLenPdf::58                      0                       # What write queue length does an incoming req see
system.mem_ctrls.wrQLenPdf::59                      0                       # What write queue length does an incoming req see
system.mem_ctrls.wrQLenPdf::60                      0                       # What write queue length does an incoming req see
system.mem_ctrls.wrQLenPdf::61                      0                       # What write queue length does an incoming req see
system.mem_ctrls.wrQLenPdf::62                      0                       # What write queue length does an incoming req see
system.mem_ctrls.wrQLenPdf::63                      0                       # What write queue length does an incoming req see
system.mem_ctrls.bytesPerActivate::samples        72737                       # Bytes accessed per row activation
system.mem_ctrls.bytesPerActivate::mean    344.818840                       # Bytes accessed per row activation
system.mem_ctrls.bytesPerActivate::gmean   220.514963                       # Bytes accessed per row activation
system.mem_ctrls.bytesPerActivate::stdev   356.570139                       # Bytes accessed per row activation
system.mem_ctrls.bytesPerActivate::0-127         3431      4.72%      4.72% # Bytes accessed per row activation
system.mem_ctrls.bytesPerActivate::128-255        44314     60.92%     65.64% # Bytes accessed per row activation
system.mem_ctrls.bytesPerActivate::256-383         4791      6.59%     72.23% # Bytes accessed per row activation
system.mem_ctrls.bytesPerActivate::384-511         1621      2.23%     74.46% # Bytes accessed per row activation
system.mem_ctrls.bytesPerActivate::512-639         1491      2.05%     76.51% # Bytes accessed per row activation
system.mem_ctrls.bytesPerActivate::640-767         1818      2.50%     79.01% # Bytes accessed per row activation
system.mem_ctrls.bytesPerActivate::768-895          878      1.21%     80.21% # Bytes accessed per row activation
system.mem_ctrls.bytesPerActivate::896-1023          980      1.35%     81.56% # Bytes accessed per row activation
system.mem_ctrls.bytesPerActivate::1024-1151        13413     18.44%    100.00% # Bytes accessed per row activation
system.mem_ctrls.bytesPerActivate::total        72737                       # Bytes accessed per row activation
system.mem_ctrls.rdPerTurnAround::samples         8780                       # Reads before turning the bus around for writes
system.mem_ctrls.rdPerTurnAround::mean      28.064009                       # Reads before turning the bus around for writes
system.mem_ctrls.rdPerTurnAround::gmean     21.943932                       # Reads before turning the bus around for writes
system.mem_ctrls.rdPerTurnAround::stdev     83.828333                       # Reads before turning the bus around for writes
system.mem_ctrls.rdPerTurnAround::0-255          8764     99.82%     99.82% # Reads before turning the bus around for writes
system.mem_ctrls.rdPerTurnAround::256-511            4      0.05%     99.86% # Reads before turning the bus around for writes
system.mem_ctrls.rdPerTurnAround::512-767            3      0.03%     99.90% # Reads before turning the bus around for writes
system.mem_ctrls.rdPerTurnAround::768-1023            1      0.01%     99.91% # Reads before turning the bus around for writes
system.mem_ctrls.rdPerTurnAround::1280-1535            1      0.01%     99.92% # Reads before turning the bus around for writes
[...]
system.cpu.icache.ReadReq_avg_miss_latency::total 71253.690037                       # average ReadReq miss latency
system.cpu.icache.ReadReq_mshr_misses::.cpu.inst          542                       # number of ReadReq MSHR misses
system.cpu.icache.ReadReq_mshr_misses::total          542                       # number of ReadReq MSHR misses
system.cpu.icache.ReadReq_mshr_miss_latency::.cpu.inst     38077500                       # number of ReadReq MSHR miss cycles
system.cpu.icache.ReadReq_mshr_miss_latency::total     38077500                       # number of ReadReq MSHR miss cycles
system.cpu.icache.ReadReq_mshr_miss_rate::.cpu.inst     0.000067                       # mshr miss rate for ReadReq accesses
system.cpu.icache.ReadReq_mshr_miss_rate::total     0.000067                       # mshr miss rate for ReadReq accesses
system.cpu.icache.ReadReq_avg_mshr_miss_latency::.cpu.inst 70253.690037                       # average ReadReq mshr miss latency
system.cpu.icache.ReadReq_avg_mshr_miss_latency::total 70253.690037                       # average ReadReq mshr miss latency
system.cpu.icache.tags.pwrStateResidencyTicks::UNDEFINED  83379651500                       # Cumulative time (in ticks) in various power states
system.cpu.icache.tags.tagsinuse           204.996434                       # Cycle average of tags in use
system.cpu.icache.tags.total_refs             8051200                       # Total number of references to valid blocks.
system.cpu.icache.tags.sampled_refs               542                       # Sample count of references to valid blocks.
system.cpu.icache.tags.avg_refs          14854.612546                       # Average number of references to valid blocks.
system.cpu.icache.tags.warmup_cycle             92500                       # Cycle when the warmup percentage was hit.
system.cpu.icache.tags.occ_blocks::.cpu.inst   204.996434                       # Average occupied blocks per requestor
system.cpu.icache.tags.occ_percent::.cpu.inst     0.800767                       # Average percentage of cache occupancy
system.cpu.icache.tags.occ_percent::total     0.800767                       # Average percentage of cache occupancy
system.cpu.icache.tags.occ_task_id_blocks::1024          238                       # Occupied blocks per task id
system.cpu.icache.tags.age_task_id_blocks_1024::3           52                       # Occupied blocks per task id
system.cpu.icache.tags.age_task_id_blocks_1024::4          186                       # Occupied blocks per task id
system.cpu.icache.tags.occ_task_id_percent::1024     0.929688                       # Percentage of cache occupancy per task id
system.cpu.icache.tags.tag_accesses          16102942                       # Number of tag accesses
system.cpu.icache.tags.data_accesses         16102942                       # Number of data accesses
system.cpu.dtb.walker.pwrStateResidencyTicks::UNDEFINED  83379651500                       # Cumulative time (in ticks) in various power states
system.cpu.dtb.stage2_mmu.stage2_tlb.walker.pwrStateResidencyTicks::UNDEFINED  83379651500                       # Cumulative time (in ticks) in various power states
system.cpu.dcache.pwrStateResidencyTicks::UNDEFINED  83379651500                       # Cumulative time (in ticks) in various power states
system.cpu.dcache.demand_hits::.cpu.data     51311838                       # number of demand (read+write) hits
system.cpu.dcache.demand_hits::total         51311838                       # number of demand (read+write) hits
system.cpu.dcache.overall_hits::.cpu.data     51312402                       # number of overall hits
system.cpu.dcache.overall_hits::total        51312402                       # number of overall hits
system.cpu.dcache.demand_misses::.cpu.data       740270                       # number of demand (read+write) misses
system.cpu.dcache.demand_misses::total         740270                       # number of demand (read+write) misses
system.cpu.dcache.overall_misses::.cpu.data       748124                       # number of overall misses
system.cpu.dcache.overall_misses::total        748124                       # number of overall misses
system.cpu.dcache.demand_miss_latency::.cpu.data  21298070500                       # number of demand (read+write) miss cycles
system.cpu.dcache.demand_miss_latency::total  21298070500                       # number of demand (read+write) miss cycles
system.cpu.dcache.overall_miss_latency::.cpu.data  21298070500                       # number of overall miss cycles
system.cpu.dcache.overall_miss_latency::total  21298070500                       # number of overall miss cycles
system.cpu.dcache.demand_accesses::.cpu.data     52052108                       # number of demand (read+write) accesses
system.cpu.dcache.demand_accesses::total     52052108                       # number of demand (read+write) accesses
system.cpu.dcache.overall_accesses::.cpu.data     52060526                       # number of overall (read+write) accesses
system.cpu.dcache.overall_accesses::total     52060526                       # number of overall (read+write) accesses
system.cpu.dcache.demand_miss_rate::.cpu.data     0.014222                       # miss rate for demand accesses
system.cpu.dcache.demand_miss_rate::total     0.014222                       # miss rate for demand accesses
system.cpu.dcache.overall_miss_rate::.cpu.data     0.014370                       # miss rate for overall accesses
system.cpu.dcache.overall_miss_rate::total     0.014370                       # miss rate for overall accesses
system.cpu.dcache.demand_avg_miss_latency::.cpu.data 28770.678941                       # average overall miss latency
system.cpu.dcache.demand_avg_miss_latency::total 28770.678941                       # average overall miss latency
system.cpu.dcache.overall_avg_miss_latency::.cpu.data 28468.636884                       # average overall miss latency
system.cpu.dcache.overall_avg_miss_latency::total 28468.636884                       # average overall miss latency
system.cpu.dcache.blocked_cycles::no_mshrs            0                       # number of cycles access was blocked
system.cpu.dcache.blocked_cycles::no_targets            0                       # number of cycles access was blocked
system.cpu.dcache.blocked::no_mshrs                 0                       # number of cycles access was blocked
system.cpu.dcache.blocked::no_targets               0                       # number of cycles access was blocked
system.cpu.dcache.avg_blocked_cycles::no_mshrs          nan                       # average number of cycles each access was blocked
system.cpu.dcache.avg_blocked_cycles::no_targets          nan                       # average number of cycles each access was blocked
system.cpu.dcache.writebacks::.writebacks       657504                       # number of writebacks
system.cpu.dcache.writebacks::total            657504                       # number of writebacks
system.cpu.dcache.demand_mshr_hits::.cpu.data        35463                       # number of demand (read+write) MSHR hits
system.cpu.dcache.demand_mshr_hits::total        35463                       # number of demand (read+write) MSHR hits
system.cpu.dcache.overall_mshr_hits::.cpu.data        35463                       # number of overall MSHR hits
system.cpu.dcache.overall_mshr_hits::total        35463                       # number of overall MSHR hits
system.cpu.dcache.demand_mshr_misses::.cpu.data       704807                       # number of demand (read+write) MSHR misses
system.cpu.dcache.demand_mshr_misses::total       704807                       # number of demand (read+write) MSHR misses
system.cpu.dcache.overall_mshr_misses::.cpu.data       708762                       # number of overall MSHR misses
system.cpu.dcache.overall_mshr_misses::total       708762                       # number of overall MSHR misses
system.cpu.dcache.demand_mshr_miss_latency::.cpu.data  18174404500                       # number of demand (read+write) MSHR miss cycles
system.cpu.dcache.demand_mshr_miss_latency::total  18174404500                       # number of demand (read+write) MSHR miss cycles
system.cpu.dcache.overall_mshr_miss_latency::.cpu.data  18505370000                       # number of overall MSHR miss cycles
system.cpu.dcache.overall_mshr_miss_latency::total  18505370000                       # number of overall MSHR miss cycles
system.cpu.dcache.demand_mshr_miss_rate::.cpu.data     0.013540                       # mshr miss rate for demand accesses
system.cpu.dcache.demand_mshr_miss_rate::total     0.013540                       # mshr miss rate for demand accesses
system.cpu.dcache.overall_mshr_miss_rate::.cpu.data     0.013614                       # mshr miss rate for overall accesses
system.cpu.dcache.overall_mshr_miss_rate::total     0.013614                       # mshr miss rate for overall accesses
system.cpu.dcache.demand_avg_mshr_miss_latency::.cpu.data 25786.356407                       # average overall mshr miss latency
system.cpu.dcache.demand_avg_mshr_miss_latency::total 25786.356407                       # average overall mshr miss latency
system.cpu.dcache.overall_avg_mshr_miss_latency::.cpu.data 26109.427424                       # average overall mshr miss latency
system.cpu.dcache.overall_avg_mshr_miss_latency::total 26109.427424                       # average overall mshr miss latency
system.cpu.dcache.replacements                 708249                       # number of replacements
system.cpu.dcache.ReadReq_hits::.cpu.data     40683812                       # number of ReadReq hits
system.cpu.dcache.ReadReq_hits::total        40683812                       # number of ReadReq hits
system.cpu.dcache.ReadReq_misses::.cpu.data       418217                       # number of ReadReq misses
system.cpu.dcache.ReadReq_misses::total        418217                       # number of ReadReq misses
system.cpu.dcache.ReadReq_miss_latency::.cpu.data   8223041500                       # number of ReadReq miss cycles
system.cpu.dcache.ReadReq_miss_latency::total   8223041500                       # number of ReadReq miss cycles
system.cpu.dcache.ReadReq_accesses::.cpu.data     41102029                       # number of ReadReq accesses(hits+misses)
system.cpu.dcache.ReadReq_accesses::total     41102029                       # number of ReadReq accesses(hits+misses)
system.cpu.dcache.ReadReq_miss_rate::.cpu.data     0.010175                       # miss rate for ReadReq accesses
system.cpu.dcache.ReadReq_miss_rate::total     0.010175                       # miss rate for ReadReq accesses
system.cpu.dcache.ReadReq_avg_miss_latency::.cpu.data 19662.140707                       # average ReadReq miss latency
system.cpu.dcache.ReadReq_avg_miss_latency::total 19662.140707                       # average ReadReq miss latency
system.cpu.dcache.ReadReq_mshr_hits::.cpu.data         2660                       # number of ReadReq MSHR hits
system.cpu.dcache.ReadReq_mshr_hits::total         2660                       # number of ReadReq MSHR hits
system.cpu.dcache.ReadReq_mshr_misses::.cpu.data       415557                       # number of ReadReq MSHR misses
system.cpu.dcache.ReadReq_mshr_misses::total       415557                       # number of ReadReq MSHR misses
system.cpu.dcache.ReadReq_mshr_miss_latency::.cpu.data   7657759000                       # number of ReadReq MSHR miss cycles
system.cpu.dcache.ReadReq_mshr_miss_latency::total   7657759000                       # number of ReadReq MSHR miss cycles
system.cpu.dcache.ReadReq_mshr_miss_rate::.cpu.data     0.010110                       # mshr miss rate for ReadReq accesses
system.cpu.dcache.ReadReq_mshr_miss_rate::total     0.010110                       # mshr miss rate for ReadReq accesses
system.cpu.dcache.ReadReq_avg_mshr_miss_latency::.cpu.data 18427.698246                       # average ReadReq mshr miss latency
system.cpu.dcache.ReadReq_avg_mshr_miss_latency::total 18427.698246                       # average ReadReq mshr miss latency
system.cpu.dcache.WriteReq_hits::.cpu.data     10628026                       # number of WriteReq hits
system.cpu.dcache.WriteReq_hits::total       10628026                       # number of WriteReq hits
system.cpu.dcache.WriteReq_misses::.cpu.data       322053                       # number of WriteReq misses
system.cpu.dcache.WriteReq_misses::total       322053                       # number of WriteReq misses
system.cpu.dcache.WriteReq_miss_latency::.cpu.data  13075029000                       # number of WriteReq miss cycles
system.cpu.dcache.WriteReq_miss_latency::total  13075029000                       # number of WriteReq miss cycles
system.cpu.dcache.WriteReq_accesses::.cpu.data     10950079                       # number of WriteReq accesses(hits+misses)
system.cpu.dcache.WriteReq_accesses::total     10950079                       # number of WriteReq accesses(hits+misses)
system.cpu.dcache.WriteReq_miss_rate::.cpu.data     0.029411                       # miss rate for WriteReq accesses
system.cpu.dcache.WriteReq_miss_rate::total     0.029411                       # miss rate for WriteReq accesses
system.cpu.dcache.WriteReq_avg_miss_latency::.cpu.data 40598.997681                       # average WriteReq miss latency
system.cpu.dcache.WriteReq_avg_miss_latency::total 40598.997681                       # average WriteReq miss latency
system.cpu.dcache.WriteReq_mshr_hits::.cpu.data        32803                       # number of WriteReq MSHR hits
system.cpu.dcache.WriteReq_mshr_hits::total        32803                       # number of WriteReq MSHR hits
system.cpu.dcache.WriteReq_mshr_misses::.cpu.data       289250                       # number of WriteReq MSHR misses
system.cpu.dcache.WriteReq_mshr_misses::total       289250                       # number of WriteReq MSHR misses
system.cpu.dcache.WriteReq_mshr_miss_latency::.cpu.data  10516645500                       # number of WriteReq MSHR miss cycles
system.cpu.dcache.WriteReq_mshr_miss_latency::total  10516645500                       # number of WriteReq MSHR miss cycles
system.cpu.dcache.WriteReq_mshr_miss_rate::.cpu.data     0.026415                       # mshr miss rate for WriteReq accesses
system.cpu.dcache.WriteReq_mshr_miss_rate::total     0.026415                       # mshr miss rate for WriteReq accesses
system.cpu.dcache.WriteReq_avg_mshr_miss_latency::.cpu.data 36358.324978                       # average WriteReq mshr miss latency
system.cpu.dcache.WriteReq_avg_mshr_miss_latency::total 36358.324978                       # average WriteReq mshr miss latency
system.cpu.dcache.SoftPFReq_hits::.cpu.data          564                       # number of SoftPFReq hits
system.cpu.dcache.SoftPFReq_hits::total           564                       # number of SoftPFReq hits
system.cpu.dcache.SoftPFReq_misses::.cpu.data         7854                       # number of SoftPFReq misses
system.cpu.dcache.SoftPFReq_misses::total         7854                       # number of SoftPFReq misses
system.cpu.dcache.SoftPFReq_accesses::.cpu.data         8418                       # number of SoftPFReq accesses(hits+misses)
system.cpu.dcache.SoftPFReq_accesses::total         8418                       # number of SoftPFReq accesses(hits+misses)
system.cpu.dcache.SoftPFReq_miss_rate::.cpu.data     0.933001                       # miss rate for SoftPFReq accesses
system.cpu.dcache.SoftPFReq_miss_rate::total     0.933001                       # miss rate for SoftPFReq accesses
system.cpu.dcache.SoftPFReq_mshr_misses::.cpu.data         3955                       # number of SoftPFReq MSHR misses
system.cpu.dcache.SoftPFReq_mshr_misses::total         3955                       # number of SoftPFReq MSHR misses
system.cpu.dcache.SoftPFReq_mshr_miss_latency::.cpu.data    330965500                       # number of SoftPFReq MSHR miss cycles
system.cpu.dcache.SoftPFReq_mshr_miss_latency::total    330965500                       # number of SoftPFReq MSHR miss cycles
system.cpu.dcache.SoftPFReq_mshr_miss_rate::.cpu.data     0.469827                       # mshr miss rate for SoftPFReq accesses
system.cpu.dcache.SoftPFReq_mshr_miss_rate::total     0.469827                       # mshr miss rate for SoftPFReq accesses
system.cpu.dcache.SoftPFReq_avg_mshr_miss_latency::.cpu.data 83682.806574                       # average SoftPFReq mshr miss latency
system.cpu.dcache.SoftPFReq_avg_mshr_miss_latency::total 83682.806574                       # average SoftPFReq mshr miss latency
system.cpu.dcache.LoadLockedReq_hits::.cpu.data           38                       # number of LoadLockedReq hits
system.cpu.dcache.LoadLockedReq_hits::total           38                       # number of LoadLockedReq hits
system.cpu.dcache.LoadLockedReq_accesses::.cpu.data           38                       # number of LoadLockedReq accesses(hits+misses)
system.cpu.dcache.LoadLockedReq_accesses::total           38                       # number of LoadLockedReq accesses(hits+misses)
system.cpu.dcache.StoreCondReq_hits::.cpu.data           38                       # number of StoreCondReq hits
system.cpu.dcache.StoreCondReq_hits::total           38                       # number of StoreCondReq hits
system.cpu.dcache.StoreCondReq_accesses::.cpu.data           38                       # number of StoreCondReq accesses(hits+misses)
system.cpu.dcache.StoreCondReq_accesses::total           38                       # number of StoreCondReq accesses(hits+misses)
system.cpu.dcache.tags.pwrStateResidencyTicks::UNDEFINED  83379651500                       # Cumulative time (in ticks) in various power states
system.cpu.dcache.tags.tagsinuse           504.307082                       # Cycle average of tags in use
system.cpu.dcache.tags.total_refs            52021239                       # Total number of references to valid blocks.
system.cpu.dcache.tags.sampled_refs            708761                       # Sample count of references to valid blocks.
system.cpu.dcache.tags.avg_refs             73.397434                       # Average number of references to valid blocks.
system.cpu.dcache.tags.warmup_cycle            186500                       # Cycle when the warmup percentage was hit.
system.cpu.dcache.tags.occ_blocks::.cpu.data   504.307082                       # Average occupied blocks per requestor
system.cpu.dcache.tags.occ_percent::.cpu.data     0.984975                       # Average percentage of cache occupancy
system.cpu.dcache.tags.occ_percent::total     0.984975                       # Average percentage of cache occupancy
system.cpu.dcache.tags.occ_task_id_blocks::1024          512                       # Occupied blocks per task id
system.cpu.dcache.tags.age_task_id_blocks_1024::0          237                       # Occupied blocks per task id
system.cpu.dcache.tags.age_task_id_blocks_1024::1          233                       # Occupied blocks per task id
system.cpu.dcache.tags.age_task_id_blocks_1024::2           40                       # Occupied blocks per task id
system.cpu.dcache.tags.age_task_id_blocks_1024::3            2                       # Occupied blocks per task id
system.cpu.dcache.tags.occ_task_id_percent::1024            1                       # Percentage of cache occupancy per task id
system.cpu.dcache.tags.tag_accesses         104829965                       # Number of tag accesses
system.cpu.dcache.tags.data_accesses        104829965                       # Number of data accesses
system.cpu.itb.walker.pwrStateResidencyTicks::UNDEFINED  83379651500                       # Cumulative time (in ticks) in various power states
system.cpu.itb.stage2_mmu.stage2_tlb.walker.pwrStateResidencyTicks::UNDEFINED  83379651500                       # Cumulative time (in ticks) in various power states

---------- End Simulation Statistics   ----------
