
---------- Begin Simulation Statistics ----------
final_tick                                82790232500                       # Number of ticks from beginning of simulation (restored from checkpoints and never reset)
host_inst_rate                                 261185                       # Simulator instruction rate (inst/s)
host_mem_usage                                 702516                       # Number of bytes of host memory used
host_op_rate                                   261698                       # Simulator op (including micro ops) rate (op/s)
host_seconds                                   382.87                       # Real time elapsed on the host
host_tick_rate                              216235891                       # Simulator tick rate (ticks/s)
sim_freq                                 1000000000000                       # Frequency of simulated ticks
sim_insts                                   100000001                       # Number of instructions simulated
sim_ops                                     100196370                       # Number of ops (including micro ops) simulated
sim_seconds                                  0.082790                       # Number of seconds simulated
sim_ticks                                 82790232500                       # Number of ticks simulated
system.cpu.branchPred.BTBCorrect                    0                       # Number of correct BTB predictions (this stat may not work properly.
system.cpu.branchPred.BTBHitPct             99.695878                       # BTB Hit Percentage
system.cpu.branchPred.BTBHits                 2095395                       # Number of BTB hits
system.cpu.branchPred.BTBLookups              2101787                       # Number of BTB lookups
system.cpu.branchPred.RASInCorrect                  6                       # Number of incorrect RAS predictions.
system.cpu.branchPred.condIncorrect             81343                       # Number of conditional branches incorrect
system.cpu.branchPred.condPredicted           3727677                       # Number of conditional branches predicted
system.cpu.branchPred.indirectHits                291                       # Number of indirect target hits.
system.cpu.branchPred.indirectLookups             808                       # Number of indirect predictor lookups.
system.cpu.branchPred.indirectMisses              517                       # Number of indirect misses.
system.cpu.branchPred.lookups                 4477755                       # Number of BP lookups
system.cpu.branchPred.usedRAS                   65339                       # Number of times the RAS was used to get a target.
system.cpu.branchPredindirectMispredicted          171                       # Number of mispredicted indirect branches.
system.cpu.committedInsts                   100000001                       # Number of instructions committed
system.cpu.committedOps                     100196370                       # Number of ops (including micro ops) committed
system.cpu.cpi                               1.655805                       # CPI: cycles per instruction
system.cpu.discardedOps                        190644                       # Number of ops (including micro ops) which were discarded before commit
system.cpu.dtb.accesses                             0                       # DTB accesses
system.cpu.dtb.align_faults                         0                       # Number of TLB faults due to alignment restrictions
system.cpu.dtb.domain_faults                        0                       # Number of TLB faults due to domain restrictions
system.cpu.dtb.flush_entries                        0                       # Number of entries that have been flushed from TLB
system.cpu.dtb.flush_tlb                            0                       # Number of times complete TLB was flushed
system.cpu.dtb.flush_tlb_asid                       0                       # Number of times TLB was flushed by ASID
system.cpu.dtb.flush_tlb_mva                        0                       # Number of times TLB was flushed by MVA
system.cpu.dtb.flush_tlb_mva_asid                   0                       # Number of times TLB was flushed by MVA & ASID
system.cpu.dtb.hits                                 0                       # DTB hits
system.cpu.dtb.inst_accesses                        0                       # ITB inst accesses
system.cpu.dtb.inst_hits                            0                       # ITB inst hits
system.cpu.dtb.inst_misses                          0                       # ITB inst misses
system.cpu.dtb.misses                               0                       # DTB misses
system.cpu.dtb.perms_faults                         0                       # Number of TLB faults due to permissions restrictions
system.cpu.dtb.prefetch_faults                      0                       # Number of TLB faults due to prefetch
system.cpu.dtb.read_accesses                        0                       # DTB read accesses
system.cpu.dtb.read_hits                            0                       # DTB read hits
system.cpu.dtb.read_misses                          0                       # DTB read misses
system.cpu.dtb.stage2_mmu.stage2_tlb.accesses            0                       # DTB accesses
system.cpu.dtb.stage2_mmu.stage2_tlb.align_faults            0                       # Number of TLB faults due to alignment restrictions
system.cpu.dtb.stage2_mmu.stage2_tlb.domain_faults            0                       # Number of TLB faults due to domain restrictions
system.cpu.dtb.stage2_mmu.stage2_tlb.flush_entries            0                       # Number of entries that have been flushed from TLB
system.cpu.dtb.stage2_mmu.stage2_tlb.flush_tlb            0                       # Number of times complete TLB was flushed
system.cpu.dtb.stage2_mmu.stage2_tlb.flush_tlb_asid            0                       # Number of times TLB was flushed by ASID
system.cpu.dtb.stage2_mmu.stage2_tlb.flush_tlb_mva            0                       # Number of times TLB was flushed by MVA
system.cpu.dtb.stage2_mmu.stage2_tlb.flush_tlb_mva_asid            0                       # Number of times TLB was flushed by MVA & ASID
system.cpu.dtb.stage2_mmu.stage2_tlb.hits            0                       # DTB hits
system.cpu.dtb.stage2_mmu.stage2_tlb.inst_accesses            0                       # ITB inst accesses
system.cpu.dtb.stage2_mmu.stage2_tlb.inst_hits            0                       # ITB inst hits
system.cpu.dtb.stage2_mmu.stage2_tlb.inst_misses            0                       # ITB inst misses
system.cpu.dtb.stage2_mmu.stage2_tlb.misses            0                       # DTB misses
system.cpu.dtb.stage2_mmu.stage2_tlb.perms_faults            0                       # Number of TLB faults due to permissions restrictions
system.cpu.dtb.stage2_mmu.stage2_tlb.prefetch_faults            0                       # Number of TLB faults due to prefetch
system.cpu.dtb.stage2_mmu.stage2_tlb.read_accesses            0                       # DTB read accesses
system.cpu.dtb.stage2_mmu.stage2_tlb.read_hits            0                       # DTB read hits
system.cpu.dtb.stage2_mmu.stage2_tlb.read_misses            0                       # DTB read misses
system.cpu.dtb.stage2_mmu.stage2_tlb.walker.walkRequestOrigin_Requested::Data            0                       # Table walker requests started/completed, data/inst
system.cpu.dtb.stage2_mmu.stage2_tlb.walker.walkRequestOrigin_Requested::Inst            0                       # Table walker requests started/completed, data/inst
system.cpu.dtb.stage2_mmu.stage2_tlb.walker.walkRequestOrigin_Requested::total            0                       # Table walker requests started/completed, data/inst
system.cpu.dtb.stage2_mmu.stage2_tlb.walker.walkRequestOrigin_Completed::Data            0                       # Table walker requests started/completed, data/inst
system.cpu.dtb.stage2_mmu.stage2_tlb.walker.walkRequestOrigin_Completed::Inst            0                       # Table walker requests started/completed, data/inst
system.cpu.dtb.stage2_mmu.stage2_tlb.walker.walkRequestOrigin_Completed::total            0                       # Table walker requests started/completed, data/inst
system.cpu.dtb.stage2_mmu.stage2_tlb.walker.walkRequestOrigin::total            0                       # Table walker requests started/completed, data/inst
system.cpu.dtb.stage2_mmu.stage2_tlb.walker.walks            0                       # Table walker walks requested
system.cpu.dtb.stage2_mmu.stage2_tlb.write_accesses            0                       # DTB write accesses
system.cpu.dtb.stage2_mmu.stage2_tlb.write_hits            0                       # DTB write hits
system.cpu.dtb.stage2_mmu.stage2_tlb.write_misses            0                       # DTB write misses
system.cpu.dtb.walker.walkRequestOrigin_Requested::Data            0                       # Table walker requests started/completed, data/inst
system.cpu.dtb.walker.walkRequestOrigin_Requested::Inst            0                       # Table walker requests started/completed, data/inst
system.cpu.dtb.walker.walkRequestOrigin_Requested::total            0                       # Table walker requests started/completed, data/inst
system.cpu.dtb.walker.walkRequestOrigin_Completed::Data            0                       # Table walker requests started/completed, data/inst
system.cpu.dtb.walker.walkRequestOrigin_Completed::Inst            0                       # Table walker requests started/completed, data/inst
system.cpu.dtb.walker.walkRequestOrigin_Completed::total            0                       # Table walker requests started/completed, data/inst
system.cpu.dtb.walker.walkRequestOrigin::total            0                       # Table walker requests started/completed, data/inst
system.cpu.dtb.walker.walks                         0                       # Table walker walks requested
system.cpu.dtb.write_accesses                       0                       # DTB write accesses
system.cpu.dtb.write_hits                           0                       # DTB write hits
system.cpu.dtb.write_misses                         0                       # DTB write misses
system.cpu.fetch2.amo_instructions                  0                       # Number of memory atomic instructions successfully decoded
system.cpu.fetch2.fp_instructions                   0                       # Number of floating point instructions successfully decoded
system.cpu.fetch2.int_instructions           42610083                       # Number of integer instructions successfully decoded
system.cpu.fetch2.load_instructions          43402238                       # Number of memory load instructions successfully decoded
system.cpu.fetch2.store_instructions         11001387                       # Number of memory store instructions successfully decoded
system.cpu.fetch2.vec_instructions                  0                       # Number of SIMD instructions successfully decoded
system.cpu.idleCycles                        32920479                       # Total number of cycles that the object has spent stopped
system.cpu.ipc                               0.603936                       # IPC: instructions per cycle
system.cpu.itb.accesses                             0                       # DTB accesses
system.cpu.itb.align_faults                         0                       # Number of TLB faults due to alignment restrictions
system.cpu.itb.domain_faults                        0                       # Number of TLB faults due to domain restrictions
system.cpu.itb.flush_entries                        0                       # Number of entries that have been flushed from TLB
system.cpu.itb.flush_tlb                            0                       # Number of times complete TLB was flushed
system.cpu.itb.flush_tlb_asid                       0                       # Number of times TLB was flushed by ASID
system.cpu.itb.flush_tlb_mva                        0                       # Number of times TLB was flushed by MVA
system.cpu.itb.flush_tlb_mva_asid                   0                       # Number of times TLB was flushed by MVA & ASID
system.cpu.itb.hits                                 0                       # DTB hits
system.cpu.itb.inst_accesses                        0                       # ITB inst accesses
system.cpu.itb.inst_hits                            0                       # ITB inst hits
system.cpu.itb.inst_misses                          0                       # ITB inst misses
system.cpu.itb.misses                               0                       # DTB misses
system.cpu.itb.perms_faults                         0                       # Number of TLB faults due to permissions restrictions
system.cpu.itb.prefetch_faults                      0                       # Number of TLB faults due to prefetch
system.cpu.itb.read_accesses                        0                       # DTB read accesses
system.cpu.itb.read_hits                            0                       # DTB read hits
system.cpu.itb.read_misses                          0                       # DTB read misses
system.cpu.itb.stage2_mmu.stage2_tlb.accesses            0                       # DTB accesses
system.cpu.itb.stage2_mmu.stage2_tlb.align_faults            0                       # Number of TLB faults due to alignment restrictions
system.cpu.itb.stage2_mmu.stage2_tlb.domain_faults            0                       # Number of TLB faults due to domain restrictions
system.cpu.itb.stage2_mmu.stage2_tlb.flush_entries            0                       # Number of entries that have been flushed from TLB
system.cpu.itb.stage2_mmu.stage2_tlb.flush_tlb            0                       # Number of times complete TLB was flushed
system.cpu.itb.stage2_mmu.stage2_tlb.flush_tlb_asid            0                       # Number of times TLB was flushed by ASID
system.cpu.itb.stage2_mmu.stage2_tlb.flush_tlb_mva            0                       # Number of times TLB was flushed by MVA
system.cpu.itb.stage2_mmu.stage2_tlb.flush_tlb_mva_asid            0                       # Number of times TLB was flushed by MVA & ASID
system.cpu.itb.stage2_mmu.stage2_tlb.hits            0                       # DTB hits
system.cpu.itb.stage2_mmu.stage2_tlb.inst_accesses            0                       # ITB inst accesses
system.cpu.itb.stage2_mmu.stage2_tlb.inst_hits            0                       # ITB inst hits
system.cpu.itb.stage2_mmu.stage2_tlb.inst_misses            0                       # ITB inst misses
system.cpu.itb.stage2_mmu.stage2_tlb.misses            0                       # DTB misses
system.cpu.itb.stage2_mmu.stage2_tlb.perms_faults            0                       # Number of TLB faults due to permissions restrictions
system.cpu.itb.stage2_mmu.stage2_tlb.prefetch_faults            0                       # Number of TLB faults due to prefetch
system.cpu.itb.stage2_mmu.stage2_tlb.read_accesses            0                       # DTB read accesses
system.cpu.itb.stage2_mmu.stage2_tlb.read_hits            0                       # DTB read hits
system.cpu.itb.stage2_mmu.stage2_tlb.read_misses            0                       # DTB read misses
system.cpu.itb.stage2_mmu.stage2_tlb.walker.walkRequestOrigin_Requested::Data            0                       # Table walker requests started/completed, data/inst
system.cpu.itb.stage2_mmu.stage2_tlb.walker.walkRequestOrigin_Requested::Inst            0                       # Table walker requests started/completed, data/inst
system.cpu.itb.stage2_mmu.stage2_tlb.walker.walkRequestOrigin_Requested::total            0                       # Table walker requests started/completed, data/inst
system.cpu.itb.stage2_mmu.stage2_tlb.walker.walkRequestOrigin_Completed::Data            0                       # Table walker requests started/completed, data/inst
system.cpu.itb.stage2_mmu.stage2_tlb.walker.walkRequestOrigin_Completed::Inst            0                       # Table walker requests started/completed, data/inst
system.cpu.itb.stage2_mmu.stage2_tlb.walker.walkRequestOrigin_Completed::total            0                       # Table walker requests started/completed, data/inst
system.cpu.itb.stage2_mmu.stage2_tlb.walker.walkRequestOrigin::total            0                       # Table walker requests started/completed, data/inst
system.cpu.itb.stage2_mmu.stage2_tlb.walker.walks            0                       # Table walker walks requested
system.cpu.itb.stage2_mmu.stage2_tlb.write_accesses            0                       # DTB write accesses
system.cpu.itb.stage2_mmu.stage2_tlb.write_hits            0                       # DTB write hits
system.cpu.itb.stage2_mmu.stage2_tlb.write_misses            0                       # DTB write misses
system.cpu.itb.walker.walkRequestOrigin_Requested::Data            0                       # Table walker requests started/completed, data/inst
system.cpu.itb.walker.walkRequestOrigin_Requested::Inst            0                       # Table walker requests started/completed, data/inst
system.cpu.itb.walker.walkRequestOrigin_Requested::total            0                       # Table walker requests started/completed, data/inst
system.cpu.itb.walker.walkRequestOrigin_Completed::Data            0                       # Table walker requests started/completed, data/inst
system.cpu.itb.walker.walkRequestOrigin_Completed::Inst            0                       # Table walker requests started/completed, data/inst
system.cpu.itb.walker.walkRequestOrigin_Completed::total            0                       # Table walker requests started/completed, data/inst
system.cpu.itb.walker.walkRequestOrigin::total            0                       # Table walker requests started/completed, data/inst
system.cpu.itb.walker.walks                         0                       # Table walker walks requested
system.cpu.itb.write_accesses                       0                       # DTB write accesses
system.cpu.itb.write_hits                           0                       # DTB write hits
system.cpu.itb.write_misses                         0                       # DTB write misses
system.cpu.numCycles                        165580465                       # number of cpu cycles simulated
system.cpu.numFetchSuspends                         0                       # Number of times Execute suspended instruction fetching
system.cpu.numWorkItemsCompleted                    0                       # number of work items this cpu completed
system.cpu.numWorkItemsStarted                      0                       # number of work items this cpu started
system.cpu.op_class_0::No_OpClass                   0      0.00%      0.00% # Class of committed instruction
system.cpu.op_class_0::IntAlu                46531438     46.44%     46.44% # Class of committed instruction
system.cpu.op_class_0::IntMult                  20720      0.02%     46.46% # Class of committed instruction
system.cpu.op_class_0::IntDiv                       0      0.00%     46.46% # Class of committed instruction
system.cpu.op_class_0::FloatAdd                     0      0.00%     46.46% # Class of committed instruction
system.cpu.op_class_0::FloatCmp                     0      0.00%     46.46% # Class of committed instruction
system.cpu.op_class_0::FloatCvt                     0      0.00%     46.46% # Class of committed instruction
system.cpu.op_class_0::FloatMult                    0      0.00%     46.46% # Class of committed instruction
system.cpu.op_class_0::FloatMultAcc                 0      0.00%     46.46% # Class of committed instruction
system.cpu.op_class_0::FloatDiv                     0      0.00%     46.46% # Class of committed instruction
system.cpu.op_class_0::FloatMisc                    0      0.00%     46.46% # Class of committed instruction
system.cpu.op_class_0::FloatSqrt                    0      0.00%     46.46% # Class of committed instruction
system.cpu.op_class_0::SimdAdd                      0      0.00%     46.46% # Class of committed instruction
system.cpu.op_class_0::SimdAddAcc                   0      0.00%     46.46% # Class of committed instruction
system.cpu.op_class_0::SimdAlu                      0      0.00%     46.46% # Class of committed instruction
system.cpu.op_class_0::SimdCmp                      0      0.00%     46.46% # Class of committed instruction
system.cpu.op_class_0::SimdCvt                      0      0.00%     46.46% # Class of committed instruction
system.cpu.op_class_0::SimdMisc                     0      0.00%     46.46% # Class of committed instruction
system.cpu.op_class_0::SimdMult                     0      0.00%     46.46% # Class of committed instruction
system.cpu.op_class_0::SimdMultAcc                  0      0.00%     46.46% # Class of committed instruction
system.cpu.op_class_0::SimdShift                    0      0.00%     46.46% # Class of committed instruction
system.cpu.op_class_0::SimdShiftAcc                 0      0.00%     46.46% # Class of committed instruction
system.cpu.op_class_0::SimdDiv                      0      0.00%     46.46% # Class of committed instruction
system.cpu.op_class_0::SimdSqrt                     0      0.00%     46.46% # Class of committed instruction
system.cpu.op_class_0::SimdFloatAdd                 0      0.00%     46.46% # Class of committed instruction
system.cpu.op_class_0::SimdFloatAlu                 0      0.00%     46.46% # Class of committed instruction
system.cpu.op_class_0::SimdFloatCmp                 0      0.00%     46.46% # Class of committed instruction
system.cpu.op_class_0::SimdFloatCvt                 0      0.00%     46.46% # Class of committed instruction
system.cpu.op_class_0::SimdFloatDiv                 0      0.00%     46.46% # Class of committed instruction
system.cpu.op_class_0::SimdFloatMisc               18      0.00%     46.46% # Class of committed instruction
system.cpu.op_class_0::SimdFloatMult                0      0.00%     46.46% # Class of committed instruction
system.cpu.op_class_0::SimdFloatMultAcc             0      0.00%     46.46% # Class of committed instruction
system.cpu.op_class_0::SimdFloatSqrt                0      0.00%     46.46% # Class of committed instruction
system.cpu.op_class_0::SimdReduceAdd                0      0.00%     46.46% # Class of committed instruction
system.cpu.op_class_0::SimdReduceAlu                0      0.00%     46.46% # Class of committed instruction
system.cpu.op_class_0::SimdReduceCmp                0      0.00%     46.46% # Class of committed instruction
system.cpu.op_class_0::SimdFloatReduceAdd            0      0.00%     46.46% # Class of committed instruction
system.cpu.op_class_0::SimdFloatReduceCmp            0      0.00%     46.46% # Class of committed instruction
system.cpu.op_class_0::SimdAes                      0      0.00%     46.46% # Class of committed instruction
system.cpu.op_class_0::SimdAesMix                   0      0.00%     46.46% # Class of committed instruction
system.cpu.op_class_0::SimdSha1Hash                 0      0.00%     46.46% # Class of committed instruction
system.cpu.op_class_0::SimdSha1Hash2                0      0.00%     46.46% # Class of committed instruction
system.cpu.op_class_0::SimdSha256Hash               0      0.00%     46.46% # Class of committed instruction
system.cpu.op_class_0::SimdSha256Hash2              0      0.00%     46.46% # Class of committed instruction
system.cpu.op_class_0::SimdShaSigma2                0      0.00%     46.46% # Class of committed instruction
system.cpu.op_class_0::SimdShaSigma3                0      0.00%     46.46% # Class of committed instruction
system.cpu.op_class_0::SimdPredAlu                  0      0.00%     46.46% # Class of committed instruction
system.cpu.op_class_0::MemRead               42693580     42.61%     89.07% # Class of committed instruction
system.cpu.op_class_0::MemWrite              10950614     10.93%    100.00% # Class of committed instruction
system.cpu.op_class_0::FloatMemRead                 0      0.00%    100.00% # Class of committed instruction
system.cpu.op_class_0::FloatMemWrite                0      0.00%    100.00% # Class of committed instruction
system.cpu.op_class_0::IprAccess                    0      0.00%    100.00% # Class of committed instruction
system.cpu.op_class_0::InstPrefetch                 0      0.00%    100.00% # Class of committed instruction
system.cpu.op_class_0::total                100196370                       # Class of committed instruction
system.cpu.tickCycles                       132659986                       # Number of cycles that the object actually ticked
system.cpu.workload.numSyscalls                    84                       # Number of system calls
system.membus.snoop_filter.hit_multi_requests            0                       # Number of requests hitting in the snoop filter with multiple (>1) holders of the requested data.
system.membus.snoop_filter.hit_multi_snoops            0                       # Number of snoops hitting in the snoop filter with multiple (>1) holders of the requested data.
system.membus.snoop_filter.hit_single_requests       114195                       # Number of requests hitting in the snoop filter with a single holder of the requested data.
system.membus.snoop_filter.hit_single_snoops            0                       # Number of snoops hitting in the snoop filter with a single holder of the requested data.
system.membus.snoop_filter.tot_requests        294246                       # Total number of requests made to the snoop filter.
system.membus.snoop_filter.tot_snoops               0                       # Total number of snoops made to the snoop filter.
system.tol2bus.snoop_filter.hit_multi_requests          120                       # Number of requests hitting in the snoop filter with multiple (>1) holders of the requested data.
system.tol2bus.snoop_filter.hit_multi_snoops            0                       # Number of snoops hitting in the snoop filter with multiple (>1) holders of the requested data.
system.tol2bus.snoop_filter.hit_single_requests       710995                       # Number of requests hitting in the snoop filter with a single holder of the requested data.
system.tol2bus.snoop_filter.hit_single_snoops          457                       # Number of snoops hitting in the snoop filter with a single holder of the requested data.
system.tol2bus.snoop_filter.tot_requests      1423455                       # Total number of requests made to the snoop filter.
system.tol2bus.snoop_filter.tot_snoops            457                       # Total number of snoops made to the snoop filter.
system.membus.pwrStateResidencyTicks::UNDEFINED  82790232500                       # Cumulative time (in ticks) in various power states
system.membus.trans_dist::ReadResp              52323                       # Transaction distribution
system.membus.trans_dist::WritebackDirty        66664                       # Transaction distribution
system.membus.trans_dist::CleanEvict            47523                       # Transaction distribution
system.membus.trans_dist::ReadExReq            127736                       # Transaction distribution
system.membus.trans_dist::ReadExResp           127736                       # Transaction distribution
system.membus.trans_dist::ReadSharedReq         52323                       # Transaction distribution
system.membus.pkt_count_system.l2.mem_side::system.mem_ctrls.port       474305                       # Packet count per connected master and slave (bytes)
system.membus.pkt_count::total                 474305                       # Packet count per connected master and slave (bytes)
system.membus.pkt_size_system.l2.mem_side::system.mem_ctrls.port     15790272                       # Cumulative packet size per connected master and slave (bytes)
system.membus.pkt_size::total                15790272                       # Cumulative packet size per connected master and slave (bytes)
system.membus.snoops                                0                       # Total snoops (count)
system.membus.snoopTraffic                          0                       # Total snoop traffic (bytes)
system.membus.snoop_fanout::samples            180059                       # Request fanout histogram
system.membus.snoop_fanout::mean                    0                       # Request fanout histogram
system.membus.snoop_fanout::stdev                   0                       # Request fanout histogram
system.membus.snoop_fanout::underflows              0      0.00%      0.00% # Request fanout histogram
system.membus.snoop_fanout::0                  180059    100.00%    100.00% # Request fanout histogram
system.membus.snoop_fanout::1                       0      0.00%    100.00% # Request fanout histogram
system.membus.snoop_fanout::overflows               0      0.00%    100.00% # Request fanout histogram
system.membus.snoop_fanout::min_value               0                       # Request fanout histogram
system.membus.snoop_fanout::max_value               0                       # Request fanout histogram
system.membus.snoop_fanout::total              180059                       # Request fanout histogram
system.membus.respLayer1.occupancy          968517000                       # Layer occupancy (ticks)
system.membus.respLayer1.utilization              1.2                       # Layer utilization (%)
system.membus.reqLayer0.occupancy           597331000                       # Layer occupancy (ticks)
system.membus.reqLayer0.utilization               0.7                       # Layer utilization (%)
system.tol2bus.pwrStateResidencyTicks::UNDEFINED  82790232500                       # Cumulative time (in ticks) in various power states
system.tol2bus.trans_dist::ReadResp            426081                       # Transaction distribution
system.tol2bus.trans_dist::WritebackDirty       719561                       # Transaction distribution
system.tol2bus.trans_dist::WritebackClean          302                       # Transaction distribution
system.tol2bus.trans_dist::CleanEvict          105774                       # Transaction distribution
system.tol2bus.trans_dist::ReadExReq           286381                       # Transaction distribution
system.tol2bus.trans_dist::ReadExResp          286381                       # Transaction distribution
system.tol2bus.trans_dist::ReadCleanReq           747                       # Transaction distribution
system.tol2bus.trans_dist::ReadSharedReq       425334                       # Transaction distribution
system.tol2bus.pkt_count_system.cpu.icache.mem_side::system.l2.cpu_side         1796                       # Packet count per connected master and slave (bytes)
system.tol2bus.pkt_count_system.cpu.dcache.mem_side::system.l2.cpu_side      2134121                       # Packet count per connected master and slave (bytes)
system.tol2bus.pkt_count::total               2135917                       # Packet count per connected master and slave (bytes)
system.tol2bus.pkt_size_system.cpu.icache.mem_side::system.l2.cpu_side        67136                       # Cumulative packet size per connected master and slave (bytes)
system.tol2bus.pkt_size_system.cpu.dcache.mem_side::system.l2.cpu_side     87335168                       # Cumulative packet size per connected master and slave (bytes)
system.tol2bus.pkt_size::total               87402304                       # Cumulative packet size per connected master and slave (bytes)
system.tol2bus.snoops                          114644                       # Total snoops (count)
system.tol2bus.snoopTraffic                   4266496                       # Total snoop traffic (bytes)
system.tol2bus.snoop_fanout::samples           827106                       # Request fanout histogram
system.tol2bus.snoop_fanout::mean            0.000700                       # Request fanout histogram
system.tol2bus.snoop_fanout::stdev           0.026449                       # Request fanout histogram
system.tol2bus.snoop_fanout::underflows             0      0.00%      0.00% # Request fanout histogram
system.tol2bus.snoop_fanout::0                 826527     99.93%     99.93% # Request fanout histogram
system.tol2bus.snoop_fanout::1                    579      0.07%    100.00% # Request fanout histogram
system.tol2bus.snoop_fanout::2                      0      0.00%    100.00% # Request fanout histogram
system.tol2bus.snoop_fanout::overflows              0      0.00%    100.00% # Request fanout histogram
system.tol2bus.snoop_fanout::min_value              0                       # Request fanout histogram
system.tol2bus.snoop_fanout::max_value              1                       # Request fanout histogram
system.tol2bus.snoop_fanout::total             827106                       # Request fanout histogram
system.tol2bus.reqLayer0.occupancy         1364926500                       # Layer occupancy (ticks)
system.tol2bus.reqLayer0.utilization              1.6                       # Layer utilization (%)
system.tol2bus.respLayer1.occupancy        1067574496                       # Layer occupancy (ticks)
system.tol2bus.respLayer1.utilization             1.3                       # Layer utilization (%)
system.tol2bus.respLayer0.occupancy           1120500                       # Layer occupancy (ticks)
system.tol2bus.respLayer0.utilization             0.0                       # Layer utilization (%)
system.voltage_domain.voltage                       1                       # Voltage in Volts
system.clk_domain.clock                          1000                       # Clock period in ticks
system.l2.pwrStateResidencyTicks::UNDEFINED  82790232500                       # Cumulative time (in ticks) in various power states
system.l2.demand_hits::.cpu.inst                   79                       # number of demand (read+write) hits
system.l2.demand_hits::.cpu.data               532320                       # number of demand (read+write) hits
system.l2.demand_hits::total                   532399                       # number of demand (read+write) hits
system.l2.overall_hits::.cpu.inst                  79                       # number of overall hits
system.l2.overall_hits::.cpu.data              532320                       # number of overall hits
system.l2.overall_hits::total                  532399                       # number of overall hits
system.l2.demand_misses::.cpu.inst                668                       # number of demand (read+write) misses
system.l2.demand_misses::.cpu.data             179395                       # number of demand (read+write) misses
system.l2.demand_misses::total                 180063                       # number of demand (read+write) misses
system.l2.overall_misses::.cpu.inst               668                       # number of overall misses
system.l2.overall_misses::.cpu.data            179395                       # number of overall misses
system.l2.overall_misses::total                180063                       # number of overall misses
system.l2.demand_miss_latency::.cpu.inst     52245000                       # number of demand (read+write) miss cycles
system.l2.demand_miss_latency::.cpu.data  14882972000                       # number of demand (read+write) miss cycles
system.l2.demand_miss_latency::total      14935217000                       # number of demand (read+write) miss cycles
system.l2.overall_miss_latency::.cpu.inst     52245000                       # number of overall miss cycles
system.l2.overall_miss_latency::.cpu.data  14882972000                       # number of overall miss cycles
system.l2.overall_miss_latency::total     14935217000                       # number of overall miss cycles
system.l2.demand_accesses::.cpu.inst              747                       # number of demand (read+write) accesses
system.l2.demand_accesses::.cpu.data           711715                       # number of demand (read+write) accesses
system.l2.demand_accesses::total               712462                       # number of demand (read+write) accesses
system.l2.overall_accesses::.cpu.inst             747                       # number of overall (read+write) accesses
system.l2.overall_accesses::.cpu.data          711715                       # number of overall (read+write) accesses
system.l2.overall_accesses::total              712462                       # number of overall (read+write) accesses
system.l2.demand_miss_rate::.cpu.inst        0.894244                       # miss rate for demand accesses
system.l2.demand_miss_rate::.cpu.data        0.252060                       # miss rate for demand accesses
system.l2.demand_miss_rate::total            0.252733                       # miss rate for demand accesses
system.l2.overall_miss_rate::.cpu.inst       0.894244                       # miss rate for overall accesses
system.l2.overall_miss_rate::.cpu.data       0.252060                       # miss rate for overall accesses
system.l2.overall_miss_rate::total           0.252733                       # miss rate for overall accesses
system.l2.demand_avg_miss_latency::.cpu.inst 78211.077844                       # average overall miss latency
system.l2.demand_avg_miss_latency::.cpu.data 82962.022353                       # average overall miss latency
system.l2.demand_avg_miss_latency::total 82944.397239                       # average overall miss latency
system.l2.overall_avg_miss_latency::.cpu.inst 78211.077844                       # average overall miss latency
system.l2.overall_avg_miss_latency::.cpu.data 82962.022353                       # average overall miss latency
system.l2.overall_avg_miss_latency::total 82944.397239                       # average overall miss latency
system.l2.blocked_cycles::no_mshrs                  0                       # number of cycles access was blocked
system.l2.blocked_cycles::no_targets                0                       # number of cycles access was blocked
system.l2.blocked::no_mshrs                         0                       # number of cycles access was blocked
system.l2.blocked::no_targets                       0                       # number of cycles access was blocked
system.l2.avg_blocked_cycles::no_mshrs            nan                       # average number of cycles each access was blocked
system.l2.avg_blocked_cycles::no_targets          nan                       # average number of cycles each access was blocked
system.l2.writebacks::.writebacks               66664                       # number of writebacks
system.l2.writebacks::total                     66664                       # number of writebacks
system.l2.demand_mshr_hits::.cpu.data               4                       # number of demand (read+write) MSHR hits
system.l2.demand_mshr_hits::total                   4                       # number of demand (read+write) MSHR hits
system.l2.overall_mshr_hits::.cpu.data              4                       # number of overall MSHR hits
system.l2.overall_mshr_hits::total                  4                       # number of overall MSHR hits
system.l2.demand_mshr_misses::.cpu.inst           668                       # number of demand (read+write) MSHR misses
system.l2.demand_mshr_misses::.cpu.data        179391                       # number of demand (read+write) MSHR misses
system.l2.demand_mshr_misses::total            180059                       # number of demand (read+write) MSHR misses
system.l2.overall_mshr_misses::.cpu.inst          668                       # number of overall MSHR misses
system.l2.overall_mshr_misses::.cpu.data       179391                       # number of overall MSHR misses
system.l2.overall_mshr_misses::total           180059                       # number of overall MSHR misses
system.l2.demand_mshr_miss_latency::.cpu.inst     45565000                       # number of demand (read+write) MSHR miss cycles
system.l2.demand_mshr_miss_latency::.cpu.data  13088818000                       # number of demand (read+write) MSHR miss cycles
system.l2.demand_mshr_miss_latency::total  13134383000                       # number of demand (read+write) MSHR miss cycles
system.l2.overall_mshr_miss_latency::.cpu.inst     45565000                       # number of overall MSHR miss cycles
system.l2.overall_mshr_miss_latency::.cpu.data  13088818000                       # number of overall MSHR miss cycles
system.l2.overall_mshr_miss_latency::total  13134383000                       # number of overall MSHR miss cycles
system.l2.demand_mshr_miss_rate::.cpu.inst     0.894244                       # mshr miss rate for demand accesses
system.l2.demand_mshr_miss_rate::.cpu.data     0.252055                       # mshr miss rate for demand accesses
system.l2.demand_mshr_miss_rate::total       0.252728                       # mshr miss rate for demand accesses
system.l2.overall_mshr_miss_rate::.cpu.inst     0.894244                       # mshr miss rate for overall accesses
system.l2.overall_mshr_miss_rate::.cpu.data     0.252055                       # mshr miss rate for overall accesses
system.l2.overall_mshr_miss_rate::total      0.252728                       # mshr miss rate for overall accesses
system.l2.demand_avg_mshr_miss_latency::.cpu.inst 68211.077844                       # average overall mshr miss latency
system.l2.demand_avg_mshr_miss_latency::.cpu.data 72962.512055                       # average overall mshr miss latency
system.l2.demand_avg_mshr_miss_latency::total 72944.884732                       # average overall mshr miss latency
system.l2.overall_avg_mshr_miss_latency::.cpu.inst 68211.077844                       # average overall mshr miss latency
system.l2.overall_avg_mshr_miss_latency::.cpu.data 72962.512055                       # average overall mshr miss latency
system.l2.overall_avg_mshr_miss_latency::total 72944.884732                       # average overall mshr miss latency
system.l2.replacements                         114644                       # number of replacements
system.l2.WritebackDirty_hits::.writebacks       652897                       # number of WritebackDirty hits
system.l2.WritebackDirty_hits::total           652897                       # number of WritebackDirty hits
system.l2.WritebackDirty_accesses::.writebacks       652897                       # number of WritebackDirty accesses(hits+misses)
system.l2.WritebackDirty_accesses::total       652897                       # number of WritebackDirty accesses(hits+misses)
system.l2.WritebackClean_hits::.writebacks          293                       # number of WritebackClean hits
system.l2.WritebackClean_hits::total              293                       # number of WritebackClean hits
system.l2.WritebackClean_accesses::.writebacks          293                       # number of WritebackClean accesses(hits+misses)
system.l2.WritebackClean_accesses::total          293                       # number of WritebackClean accesses(hits+misses)
system.l2.ReadExReq_hits::.cpu.data            158645                       # number of ReadExReq hits
system.l2.ReadExReq_hits::total                158645                       # number of ReadExReq hits
system.l2.ReadExReq_misses::.cpu.data          127736                       # number of ReadExReq misses
system.l2.ReadExReq_misses::total              127736                       # number of ReadExReq misses
system.l2.ReadExReq_miss_latency::.cpu.data  10854121500                       # number of ReadExReq miss cycles
system.l2.ReadExReq_miss_latency::total   10854121500                       # number of ReadExReq miss cycles
system.l2.ReadExReq_accesses::.cpu.data        286381                       # number of ReadExReq accesses(hits+misses)
system.l2.ReadExReq_accesses::total            286381                       # number of ReadExReq accesses(hits+misses)
system.l2.ReadExReq_miss_rate::.cpu.data     0.446035                       # miss rate for ReadExReq accesses
system.l2.ReadExReq_miss_rate::total         0.446035                       # miss rate for ReadExReq accesses
system.l2.ReadExReq_avg_miss_latency::.cpu.data 84973.081199                       # average ReadExReq miss latency
system.l2.ReadExReq_avg_miss_latency::total 84973.081199                       # average ReadExReq miss latency
system.l2.ReadExReq_mshr_misses::.cpu.data       127736                       # number of ReadExReq MSHR misses
system.l2.ReadExReq_mshr_misses::total         127736                       # number of ReadExReq MSHR misses
system.l2.ReadExReq_mshr_miss_latency::.cpu.data   9576761500                       # number of ReadExReq MSHR miss cycles
system.l2.ReadExReq_mshr_miss_latency::total   9576761500                       # number of ReadExReq MSHR miss cycles
system.l2.ReadExReq_mshr_miss_rate::.cpu.data     0.446035                       # mshr miss rate for ReadExReq accesses
system.l2.ReadExReq_mshr_miss_rate::total     0.446035                       # mshr miss rate for ReadExReq accesses
system.l2.ReadExReq_avg_mshr_miss_latency::.cpu.data 74973.081199                       # average ReadExReq mshr miss latency
system.l2.ReadExReq_avg_mshr_miss_latency::total 74973.081199                       # average ReadExReq mshr miss latency
system.l2.ReadCleanReq_hits::.cpu.inst             79                       # number of ReadCleanReq hits
system.l2.ReadCleanReq_hits::total                 79                       # number of ReadCleanReq hits
system.l2.ReadCleanReq_misses::.cpu.inst          668                       # number of ReadCleanReq misses
system.l2.ReadCleanReq_misses::total              668                       # number of ReadCleanReq misses
system.l2.ReadCleanReq_miss_latency::.cpu.inst     52245000                       # number of ReadCleanReq miss cycles
system.l2.ReadCleanReq_miss_latency::total     52245000                       # number of ReadCleanReq miss cycles
system.l2.ReadCleanReq_accesses::.cpu.inst          747                       # number of ReadCleanReq accesses(hits+misses)
system.l2.ReadCleanReq_accesses::total            747                       # number of ReadCleanReq accesses(hits+misses)
system.l2.ReadCleanReq_miss_rate::.cpu.inst     0.894244                       # miss rate for ReadCleanReq accesses
system.l2.ReadCleanReq_miss_rate::total      0.894244                       # miss rate for ReadCleanReq accesses
system.l2.ReadCleanReq_avg_miss_latency::.cpu.inst 78211.077844                       # average ReadCleanReq miss latency
system.l2.ReadCleanReq_avg_miss_latency::total 78211.077844                       # average ReadCleanReq miss latency
system.l2.ReadCleanReq_mshr_misses::.cpu.inst          668                       # number of ReadCleanReq MSHR misses
system.l2.ReadCleanReq_mshr_misses::total          668                       # number of ReadCleanReq MSHR misses
system.l2.ReadCleanReq_mshr_miss_latency::.cpu.inst     45565000                       # number of ReadCleanReq MSHR miss cycles
system.l2.ReadCleanReq_mshr_miss_latency::total     45565000                       # number of ReadCleanReq MSHR miss cycles
system.l2.ReadCleanReq_mshr_miss_rate::.cpu.inst     0.894244                       # mshr miss rate for ReadCleanReq accesses
system.l2.ReadCleanReq_mshr_miss_rate::total     0.894244                       # mshr miss rate for ReadCleanReq accesses
system.l2.ReadCleanReq_avg_mshr_miss_latency::.cpu.inst 68211.077844                       # average ReadCleanReq mshr miss latency
system.l2.ReadCleanReq_avg_mshr_miss_latency::total 68211.077844                       # average ReadCleanReq mshr miss latency
system.l2.ReadSharedReq_hits::.cpu.data        373675                       # number of ReadSharedReq hits
system.l2.ReadSharedReq_hits::total            373675                       # number of ReadSharedReq hits
system.l2.ReadSharedReq_misses::.cpu.data        51659                       # number of ReadSharedReq misses
system.l2.ReadSharedReq_misses::total           51659                       # number of ReadSharedReq misses
system.l2.ReadSharedReq_miss_latency::.cpu.data   4028850500                       # number of ReadSharedReq miss cycles
system.l2.ReadSharedReq_miss_latency::total   4028850500                       # number of ReadSharedReq miss cycles
system.l2.ReadSharedReq_accesses::.cpu.data       425334                       # number of ReadSharedReq accesses(hits+misses)
system.l2.ReadSharedReq_accesses::total        425334                       # number of ReadSharedReq accesses(hits+misses)
system.l2.ReadSharedReq_miss_rate::.cpu.data     0.121455                       # miss rate for ReadSharedReq accesses
system.l2.ReadSharedReq_miss_rate::total     0.121455                       # miss rate for ReadSharedReq accesses
system.l2.ReadSharedReq_avg_miss_latency::.cpu.data 77989.324222                       # average ReadSharedReq miss latency
system.l2.ReadSharedReq_avg_miss_latency::total 77989.324222                       # average ReadSharedReq miss latency
system.l2.ReadSharedReq_mshr_hits::.cpu.data            4                       # number of ReadSharedReq MSHR hits
system.l2.ReadSharedReq_mshr_hits::total            4                       # number of ReadSharedReq MSHR hits
system.l2.ReadSharedReq_mshr_misses::.cpu.data        51655                       # number of ReadSharedReq MSHR misses
system.l2.ReadSharedReq_mshr_misses::total        51655                       # number of ReadSharedReq MSHR misses
system.l2.ReadSharedReq_mshr_miss_latency::.cpu.data   3512056500                       # number of ReadSharedReq MSHR miss cycles
system.l2.ReadSharedReq_mshr_miss_latency::total   3512056500                       # number of ReadSharedReq MSHR miss cycles
system.l2.ReadSharedReq_mshr_miss_rate::.cpu.data     0.121446                       # mshr miss rate for ReadSharedReq accesses
system.l2.ReadSharedReq_mshr_miss_rate::total     0.121446                       # mshr miss rate for ReadSharedReq accesses
system.l2.ReadSharedReq_avg_mshr_miss_latency::.cpu.data 67990.639822                       # average ReadSharedReq mshr miss latency
system.l2.ReadSharedReq_avg_mshr_miss_latency::total 67990.639822                       # average ReadSharedReq mshr miss latency
system.l2.tags.pwrStateResidencyTicks::UNDEFINED  82790232500                       # Cumulative time (in ticks) in various power states
system.l2.tags.tagsinuse                 63198.863041                       # Cycle average of tags in use
system.l2.tags.total_refs                     1423331                       # Total number of references to valid blocks.
system.l2.tags.sampled_refs                    180180                       # Sample count of references to valid blocks.
system.l2.tags.avg_refs                      7.899495                       # Average number of references to valid blocks.
system.l2.tags.warmup_cycle                     77000                       # Cycle when the warmup percentage was hit.
system.l2.tags.occ_blocks::.writebacks      55.507440                       # Average occupied blocks per requestor
system.l2.tags.occ_blocks::.cpu.inst       112.491196                       # Average occupied blocks per requestor
system.l2.tags.occ_blocks::.cpu.data     63030.864406                       # Average occupied blocks per requestor
system.l2.tags.occ_percent::.writebacks      0.000847                       # Average percentage of cache occupancy
system.l2.tags.occ_percent::.cpu.inst        0.001716                       # Average percentage of cache occupancy
system.l2.tags.occ_percent::.cpu.data        0.961775                       # Average percentage of cache occupancy
system.l2.tags.occ_percent::total            0.964338                       # Average percentage of cache occupancy
system.l2.tags.occ_task_id_blocks::1024         65536                       # Occupied blocks per task id
system.l2.tags.age_task_id_blocks_1024::0            1                       # Occupied blocks per task id
system.l2.tags.age_task_id_blocks_1024::1           12                       # Occupied blocks per task id
system.l2.tags.age_task_id_blocks_1024::2           40                       # Occupied blocks per task id
system.l2.tags.age_task_id_blocks_1024::3         5704                       # Occupied blocks per task id
system.l2.tags.age_task_id_blocks_1024::4        59779                       # Occupied blocks per task id
system.l2.tags.occ_task_id_percent::1024            1                       # Percentage of cache occupancy per task id
system.l2.tags.tag_accesses                   3026850                       # Number of tag accesses
system.l2.tags.data_accesses                  3026850                       # Number of data accesses
system.cpu_voltage_domain.voltage                   1                       # Voltage in Volts
system.mem_ctrls.pwrStateResidencyTicks::UNDEFINED  82790232500                       # Cumulative time (in ticks) in various power states
system.mem_ctrls.bytes_read::.cpu.inst          42752                       # Number of bytes read from this memory
system.mem_ctrls.bytes_read::.cpu.data       11481024                       # Number of bytes read from this memory
system.mem_ctrls.bytes_read::total           11523776                       # Number of bytes read from this memory
system.mem_ctrls.bytes_inst_read::.cpu.inst        42752                       # Number of instructions bytes read from this memory
system.mem_ctrls.bytes_inst_read::total         42752                       # Number of instructions bytes read from this memory
system.mem_ctrls.bytes_written::.writebacks      4266496                       # Number of bytes written to this memory
system.mem_ctrls.bytes_written::total         4266496                       # Number of bytes written to this memory
system.mem_ctrls.num_reads::.cpu.inst             668                       # Number of read requests responded to by this memory
system.mem_ctrls.num_reads::.cpu.data          179391                       # Number of read requests responded to by this memory
system.mem_ctrls.num_reads::total              180059                       # Number of read requests responded to by this memory
system.mem_ctrls.num_writes::.writebacks        66664                       # Number of write requests responded to by this memory
system.mem_ctrls.num_writes::total              66664                       # Number of write requests responded to by this memory
system.mem_ctrls.bw_read::.cpu.inst            516389                       # Total read bandwidth from this memory (bytes/s)
system.mem_ctrls.bw_read::.cpu.data         138676069                       # Total read bandwidth from this memory (bytes/s)
system.mem_ctrls.bw_read::total             139192458                       # Total read bandwidth from this memory (bytes/s)
system.mem_ctrls.bw_inst_read::.cpu.inst       516389                       # Instruction read bandwidth from this memory (bytes/s)
system.mem_ctrls.bw_inst_read::total           516389                       # Instruction read bandwidth from this memory (bytes/s)
system.mem_ctrls.bw_write::.writebacks       51533809                       # Write bandwidth from this memory (bytes/s)
system.mem_ctrls.bw_write::total             51533809                       # Write bandwidth from this memory (bytes/s)
system.mem_ctrls.bw_total::.writebacks       51533809                       # Total bandwidth to/from this memory (bytes/s)
system.mem_ctrls.bw_total::.cpu.inst           516389                       # Total bandwidth to/from this memory (bytes/s)
system.mem_ctrls.bw_total::.cpu.data        138676069                       # Total bandwidth to/from this memory (bytes/s)
system.mem_ctrls.bw_total::total            190726267                       # Total bandwidth to/from this memory (bytes/s)
system.mem_ctrls.avgPriority_.writebacks::samples     66664.00                       # Average QoS priority value for accepted requests
system.mem_ctrls.avgPriority_.cpu.inst::samples       668.00                       # Average QoS priority value for accepted requests
system.mem_ctrls.avgPriority_.cpu.data::samples    179365.00                       # Average QoS priority value for accepted requests
system.mem_ctrls.priorityMinLatency      0.000000018750                       # per QoS priority minimum request to response latency (s)
system.mem_ctrls.priorityMaxLatency      0.020329724750                       # per QoS priority maximum request to response latency (s)
system.mem_ctrls.numReadWriteTurnArounds         4014                       # Number of turnarounds from READ to WRITE
system.mem_ctrls.numWriteReadTurnArounds         4014                       # Number of turnarounds from WRITE to READ
system.mem_ctrls.numStayReadState              440331                       # Number of times bus staying in READ state
system.mem_ctrls.numStayWriteState              62744                       # Number of times bus staying in WRITE state
system.mem_ctrls.readReqs                      180059                       # Number of read requests accepted
system.mem_ctrls.writeReqs                      66664                       # Number of write requests accepted
system.mem_ctrls.readBursts                    180059                       # Number of DRAM read bursts, including those serviced by the write queue
system.mem_ctrls.writeBursts                    66664                       # Number of DRAM write bursts, including those merged in the write queue
system.mem_ctrls.servicedByWrQ                     26                       # Number of DRAM read bursts serviced by the write queue
system.mem_ctrls.mergedWrBursts                     0                       # Number of DRAM write bursts merged with an existing one
system.mem_ctrls.neitherReadNorWriteReqs            0                       # Number of requests that are neither read nor write
system.mem_ctrls.perBankRdBursts::0             11368                       # Per bank write bursts
system.mem_ctrls.perBankRdBursts::1             11303                       # Per bank write bursts
system.mem_ctrls.perBankRdBursts::2             11314                       # Per bank write bursts
system.mem_ctrls.perBankRdBursts::3             11052                       # Per bank write bursts
system.mem_ctrls.perBankRdBursts::4             11110                       # Per bank write bursts
system.mem_ctrls.perBankRdBursts::5             11057                       # Per bank write bursts
system.mem_ctrls.perBankRdBursts::6             10988                       # Per bank write bursts
system.mem_ctrls.perBankRdBursts::7             11260                       # Per bank write bursts
system.mem_ctrls.perBankRdBursts::8             11373                       # Per bank write bursts
system.mem_ctrls.perBankRdBursts::9             11326                       # Per bank write bursts
system.mem_ctrls.perBankRdBursts::10            11466                       # Per bank write bursts
system.mem_ctrls.perBankRdBursts::11            11330                       # Per bank write bursts
system.mem_ctrls.perBankRdBursts::12            11432                       # Per bank write bursts
system.mem_ctrls.perBankRdBursts::13            11270                       # Per bank write bursts
system.mem_ctrls.perBankRdBursts::14            11138                       # Per bank write bursts
system.mem_ctrls.perBankRdBursts::15            11246                       # Per bank write bursts
system.mem_ctrls.perBankWrBursts::0              4291                       # Per bank write bursts
system.mem_ctrls.perBankWrBursts::1              4298                       # Per bank write bursts
system.mem_ctrls.perBankWrBursts::2              4211                       # Per bank write bursts
system.mem_ctrls.perBankWrBursts::3              4137                       # Per bank write bursts
system.mem_ctrls.perBankWrBursts::4              4110                       # Per bank write bursts
system.mem_ctrls.perBankWrBursts::5              4086                       # Per bank write bursts
system.mem_ctrls.perBankWrBursts::6              3950                       # Per bank write bursts
system.mem_ctrls.perBankWrBursts::7              4012                       # Per bank write bursts
system.mem_ctrls.perBankWrBursts::8              4167                       # Per bank write bursts
system.mem_ctrls.perBankWrBursts::9              4154                       # Per bank write bursts
system.mem_ctrls.perBankWrBursts::10             4198                       # Per bank write bursts
system.mem_ctrls.perBankWrBursts::11             4174                       # Per bank write bursts
system.mem_ctrls.perBankWrBursts::12             4206                       # Per bank write bursts
system.mem_ctrls.perBankWrBursts::13             4218                       # Per bank write bursts
system.mem_ctrls.perBankWrBursts::14             4202                       # Per bank write bursts
system.mem_ctrls.perBankWrBursts::15             4225                       # Per bank write bursts
system.mem_ctrls.avgRdQLen                       1.08                       # Average read queue length when enqueuing
system.mem_ctrls.avgWrQLen                      25.22                       # Average write queue length when enqueuing
system.mem_ctrls.totQLat                   2329642000                       # Total ticks spent queuing
system.mem_ctrls.totBusLat                  900165000                       # Total ticks spent in databus transfers
system.mem_ctrls.totMemAccLat              5705260750                       # Total ticks spent from burst creation until serviced by the DRAM
system.mem_ctrls.avgQLat                     12940.08                       # Average queueing delay per DRAM burst
system.mem_ctrls.avgBusLat                    5000.00                       # Average bus latency per DRAM burst
system.mem_ctrls.avgMemAccLat                31690.08                       # Average memory access latency per DRAM burst
system.mem_ctrls.numRdRetry                         0                       # Number of times read queue was full causing retry
system.mem_ctrls.numWrRetry                         0                       # Number of times write queue was full causing retry
system.mem_ctrls.readRowHits                   130001                       # Number of row buffer hits during reads
system.mem_ctrls.writeRowHits                   45791                       # Number of row buffer hits during writes
system.mem_ctrls.readRowHitRate                 72.21                       # Row buffer hit rate for reads
system.mem_ctrls.writeRowHitRate                68.69                       # Row buffer hit rate for writes
system.mem_ctrls.readPktSize::0                     0                       # Read request sizes (log2)
system.mem_ctrls.readPktSize::1                     0                       # Read request sizes (log2)
system.mem_ctrls.readPktSize::2                     0                       # Read request sizes (log2)
system.mem_ctrls.readPktSize::3                     0                       # Read request sizes (log2)
system.mem_ctrls.readPktSize::4                     0                       # Read request sizes (log2)
system.mem_ctrls.readPktSize::5                     0                       # Read request sizes (log2)
system.mem_ctrls.readPktSize::6                180059                       # Read request sizes (log2)
system.mem_ctrls.writePktSize::0                    0                       # Write request sizes (log2)
system.mem_ctrls.writePktSize::1                    0                       # Write request sizes (log2)
system.mem_ctrls.writePktSize::2                    0                       # Write request sizes (log2)
system.mem_ctrls.writePktSize::3                    0                       # Write request sizes (log2)
system.mem_ctrls.writePktSize::4                    0                       # Write request sizes (log2)
system.mem_ctrls.writePktSize::5                    0                       # Write request sizes (log2)
system.mem_ctrls.writePktSize::6                66664                       # Write request sizes (log2)
system.mem_ctrls.rdQLenPdf::0                  121930                       # What read queue length does an incoming req see
system.mem_ctrls.rdQLenPdf::1                   55973                       # What read queue length does an incoming req see
system.mem_ctrls.rdQLenPdf::2                    1788                       # What read queue length does an incoming req see
system.mem_ctrls.rdQLenPdf::3                     341                       # What read queue length does an incoming req see
system.mem_ctrls.rdQLenPdf::4                       1                       # What read queue length does an incoming req see
system.mem_ctrls.rdQLenPdf::5                       0                       # What read queue length does an incoming req see
system.mem_ctrls.rdQLenPdf::6                       0                       # What read queue length does an incoming req see
system.mem_ctrls.rdQLenPdf::7                       0                       # What read queue length does an incoming req see
system.mem_ctrls.rdQLenPdf::8                       0                       # What read queue length does an incoming req see
system.mem_ctrls.rdQLenPdf::9                       0                       # What read queue length does an incoming req see
system.mem_ctrls.rdQLenPdf::10                      0                       # What read queue length does an incoming req see
system.mem_ctrls.rdQLenPdf::11                      0                       # What read queue length does an incoming req see
system.mem_ctrls.rdQLenPdf::12                      0                       # What read queue length does an incoming req see
system.mem_ctrls.rdQLenPdf::13                      0                       # What read queue length does an incoming req see
system.mem_ctrls.rdQLenPdf::14                      0                       # What read queue length does an incoming req see
system.mem_ctrls.rdQLenPdf::15                      0                       # What read queue length does an incoming req see
system.mem_ctrls.rdQLenPdf::16                      0                       # What read queue length does an incoming req see
system.mem_ctrls.rdQLenPdf::17                      0                       # What read queue length does an incoming req see
system.mem_ctrls.rdQLenPdf::18                      0                       # What read queue length does an incoming req see
system.mem_ctrls.rdQLenPdf::19                      0                       # What read queue length does an incoming req see
system.mem_ctrls.rdQLenPdf::20                      0                       # What read queue length does an incoming req see
system.mem_ctrls.rdQLenPdf::21                      0                       # What read queue length does an incoming req see
system.mem_ctrls.rdQLenPdf::22                      0                       # What read queue length does an incoming req see
system.mem_ctrls.rdQLenPdf::23                      0                       # What read queue length does an incoming req see
system.mem_ctrls.rdQLenPdf::24                      0                       # What read queue length does an incoming req see
system.mem_ctrls.rdQLenPdf::25                      0                       # What read queue length does an incoming req see
system.mem_ctrls.rdQLenPdf::26                      0                       # What read queue length does an incoming req see
system.mem_ctrls.rdQLenPdf::27                      0                       # What read queue length does an incoming req see
system.mem_ctrls.rdQLenPdf::28                      0                       # What read queue length does an incoming req see
system.mem_ctrls.rdQLenPdf::29                      0                       # What read queue length does an incoming req see
system.mem_ctrls.rdQLenPdf::30                      0                       # What read queue length does an incoming req see
system.mem_ctrls.rdQLenPdf::31                      0                       # What read queue length does an incoming req see
system.mem_ctrls.wrQLenPdf::0                       1                       # What write queue length does an incoming req see
system.mem_ctrls.wrQLenPdf::1                       1                       # What write queue length does an incoming req see
system.mem_ctrls.wrQLenPdf::2                       1                       # What write queue length does an incoming req see
system.mem_ctrls.wrQLenPdf::3                       1                       # What write queue length does an incoming req see
system.mem_ctrls.wrQLenPdf::4                       1                       # What write queue length does an incoming req see
system.mem_ctrls.wrQLenPdf::5                       1                       # What write queue length does an incoming req see
system.mem_ctrls.wrQLenPdf::6                       1                       # What write queue length does an incoming req see
system.mem_ctrls.wrQLenPdf::7                       1                       # What write queue length does an incoming req see
system.mem_ctrls.wrQLenPdf::8                       1                       # What write queue length does an incoming req see
system.mem_ctrls.wrQLenPdf::9                       1                       # What write queue length does an incoming req see
system.mem_ctrls.wrQLenPdf::10                      1                       # What write queue length does an incoming req see
system.mem_ctrls.wrQLenPdf::11                      1                       # What write queue length does an incoming req see
system.mem_ctrls.wrQLenPdf::12                      1                       # What write queue length does an incoming req see
system.mem_ctrls.wrQLenPdf::13                      1                       # What write queue length does an incoming req see
system.mem_ctrls.wrQLenPdf::14                      1                       # What write queue length does an incoming req see
system.mem_ctrls.wrQLenPdf::15                   1166                       # What write queue length does an incoming req see
system.mem_ctrls.wrQLenPdf::16                   1179                       # What write queue length does an incoming req see
system.mem_ctrls.wrQLenPdf::17                   2673                       # What write queue length does an incoming req see
system.mem_ctrls.wrQLenPdf::18                   3952                       # What write queue length does an incoming req see
system.mem_ctrls.wrQLenPdf::19                   3953                       # What write queue length does an incoming req see
system.mem_ctrls.wrQLenPdf::20                   4046                       # What write queue length does an incoming req see
system.mem_ctrls.wrQLenPdf::21                   4023                       # What write queue length does an incoming req see
system.mem_ctrls.wrQLenPdf::22                   4041                       # What write queue length does an incoming req see
system.mem_ctrls.wrQLenPdf::23                   4055                       # What write queue length does an incoming req see
system.mem_ctrls.wrQLenPdf::24                   4081                       # What write queue length does an incoming req see
system.mem_ctrls.wrQLenPdf::25                   4579                       # What write queue length does an incoming req see
system.mem_ctrls.wrQLenPdf::26                   4194                       # What write queue length does an incoming req see
system.mem_ctrls.wrQLenPdf::27                   4037                       # What write queue length does an incoming req see
system.mem_ctrls.wrQLenPdf::28                   4410                       # What write queue length does an incoming req see
system.mem_ctrls.wrQLenPdf::29                   4057                       # What write queue length does an incoming req see
system.mem_ctrls.wrQLenPdf::30                   4038                       # What write queue length does an incoming req see
system.mem_ctrls.wrQLenPdf::31                   4121                       # What write queue length does an incoming req see
system.mem_ctrls.wrQLenPdf::32                   4040                       # What write queue length does an incoming req see
system.mem_ctrls.wrQLenPdf::33                      4                       # What write queue length does an incoming req see
system.mem_ctrls.wrQLenPdf::34                      0                       # What write queue length does an incoming req see
system.mem_ctrls.wrQLenPdf::35                      0                       # What write queue length does an incoming req see
system.mem_ctrls.wrQLenPdf::36                      0                       # What write queue length does an incoming req see
system.mem_ctrls.wrQLenPdf::37                      0                       # What write queue length does an incoming req see
system.mem_ctrls.wrQLenPdf::38                      0                       # What write queue length does an incoming req see
system.mem_ctrls.wrQLenPdf::39                      0                       # What write queue length does an incoming req see
system.mem_ctrls.wrQLenPdf::40                      0                       # What write queue length does an incoming req see
system.mem_ctrls.wrQLenPdf::41                      0                       # What write queue length does an incoming req see
system.mem_ctrls.wrQLenPdf::42                      0                       # What write queue length does an incoming req see
system.mem_ctrls.wrQLenPdf::43                      0                       # What write queue length does an incoming req see
system.mem_ctrls.wrQLenPdf::44                      0                       # What write queue length does an incoming req see
system.mem_ctrls.wrQLenPdf::45                      0                       # What write queue length does an incoming req see
system.mem_ctrls.wrQLenPdf::46                      0                       # What write queue length does an incoming req see
system.mem_ctrls.wrQLenPdf::47                      0                       # What write queue length does an incoming req see
system.mem_ctrls.wrQLenPdf::48                      0                       # What write queue length does an incoming req see
system.mem_ctrls.wrQLenPdf::49                      0                       # What write queue length does an incoming req see
system.mem_ctrls.wrQLenPdf::50                      0                       # What write queue length does an incoming req see
system.mem_ctrls.wrQLenPdf::51                      0                       # What write queue length does an incoming req see
system.mem_ctrls.wrQLenPdf::52                      0                       # What write queue length does an incoming req see
system.mem_ctrls.wrQLenPdf::53                      0                       # What write queue length does an incoming req see
system.mem_ctrls.wrQLenPdf::54                      0                       # What write queue length does an incoming req see
system.mem_ctrls.wrQLenPdf::55                      0                       # What write queue length does an incoming req see
system.mem_ctrls.wrQLenPdf::56                      0                       # What write queue length does an incoming req see
system.mem_ctrls.wrQLenPdf::57                      0                       # What write queue length does an incoming req see
system.mem_ctrls.wrQLenPdf::58                      0                       # What write queue length does an incoming req see
system.mem_ctrls.wrQLenPdf::59                      0                       # What write queue length does an incoming req see
system.mem_ctrls.wrQLenPdf::60                      0                       # What write queue length does an incoming req see
system.mem_ctrls.wrQLenPdf::61                      0                       # What write queue length does an incoming req see
system.mem_ctrls.wrQLenPdf::62                      0                       # What write queue length does an incoming req see
system.mem_ctrls.wrQLenPdf::63                      0                       # What write queue length does an incoming req see
system.mem_ctrls.bytesPerActivate::samples        70879                       # Bytes accessed per row activation
system.mem_ctrls.bytesPerActivate::mean    222.730908                       # Bytes accessed per row activation
system.mem_ctrls.bytesPerActivate::gmean   123.501341                       # Bytes accessed per row activation
system.mem_ctrls.bytesPerActivate::stdev   283.758605                       # Bytes accessed per row activation
system.mem_ctrls.bytesPerActivate::0-127        45043     63.55%     63.55% # Bytes accessed per row activation
system.mem_ctrls.bytesPerActivate::128-255         7637     10.77%     74.32% # Bytes accessed per row activation
system.mem_ctrls.bytesPerActivate::256-383         1493      2.11%     76.43% # Bytes accessed per row activation
system.mem_ctrls.bytesPerActivate::384-511          985      1.39%     77.82% # Bytes accessed per row activation
system.mem_ctrls.bytesPerActivate::512-639         9334     13.17%     90.99% # Bytes accessed per row activation
system.mem_ctrls.bytesPerActivate::640-767          731      1.03%     92.02% # Bytes accessed per row activation
system.mem_ctrls.bytesPerActivate::768-895          283      0.40%     92.42% # Bytes accessed per row activation
system.mem_ctrls.bytesPerActivate::896-1023          310      0.44%     92.86% # Bytes accessed per row activation
system.mem_ctrls.bytesPerActivate::1024-1151         5063      7.14%    100.00% # Bytes accessed per row activation
system.mem_ctrls.bytesPerActivate::total        70879                       # Bytes accessed per row activation
system.mem_ctrls.rdPerTurnAround::samples         4014                       # Reads before turning the bus around for writes
system.mem_ctrls.rdPerTurnAround::mean      44.849028                       # Reads before turning the bus around for writes
system.mem_ctrls.rdPerTurnAround::gmean     26.467992                       # Reads before turning the bus around for writes
system.mem_ctrls.rdPerTurnAround::stdev    110.433160                       # Reads before turning the bus around for writes
system.mem_ctrls.rdPerTurnAround::0-255          3742     93.22%     93.22% # Reads before turning the bus around for writes
system.mem_ctrls.rdPerTurnAround::256-511          253      6.30%     99.53% # Reads before turning the bus around for writes
system.mem_ctrls.rdPerTurnAround::512-767            6      0.15%     99.68% # Reads before turning the bus around for writes
system.mem_ctrls.rdPerTurnAround::768-1023            4      0.10%     99.78% # Reads before turning the bus around for writes
system.mem_ctrls.rdPerTurnAround::1024-1279            8      0.20%     99.98% # Reads before turning the bus around for writes
system.mem_ctrls.rdPerTurnAround::4352-4607            1      0.02%    100.00% # Reads before turning the bus around for writes
system.mem_ctrls.rdPerTurnAround::total          4014                       # Reads before turning the bus around for writes
system.mem_ctrls.wrPerTurnAround::samples         4014                       # Writes before turning the bus around for reads
system.mem_ctrls.wrPerTurnAround::mean      16.601644                       # Writes before turning the bus around for reads
[...]
system.cpu.icache.ReadReq_mshr_misses::.cpu.inst          747                       # number of ReadReq MSHR misses
system.cpu.icache.ReadReq_mshr_misses::total          747                       # number of ReadReq MSHR misses
system.cpu.icache.ReadReq_mshr_miss_latency::.cpu.inst     54214000                       # number of ReadReq MSHR miss cycles
system.cpu.icache.ReadReq_mshr_miss_latency::total     54214000                       # number of ReadReq MSHR miss cycles
system.cpu.icache.ReadReq_mshr_miss_rate::.cpu.inst     0.000077                       # mshr miss rate for ReadReq accesses
system.cpu.icache.ReadReq_mshr_miss_rate::total     0.000077                       # mshr miss rate for ReadReq accesses
system.cpu.icache.ReadReq_avg_mshr_miss_latency::.cpu.inst 72575.635877                       # average ReadReq mshr miss latency
system.cpu.icache.ReadReq_avg_mshr_miss_latency::total 72575.635877                       # average ReadReq mshr miss latency
system.cpu.icache.tags.pwrStateResidencyTicks::UNDEFINED  82790232500                       # Cumulative time (in ticks) in various power states
system.cpu.icache.tags.tagsinuse           360.541921                       # Cycle average of tags in use
system.cpu.icache.tags.total_refs             9663408                       # Total number of references to valid blocks.
system.cpu.icache.tags.sampled_refs               747                       # Sample count of references to valid blocks.
system.cpu.icache.tags.avg_refs          12936.289157                       # Average number of references to valid blocks.
system.cpu.icache.tags.warmup_cycle             87500                       # Cycle when the warmup percentage was hit.
system.cpu.icache.tags.occ_blocks::.cpu.inst   360.541921                       # Average occupied blocks per requestor
system.cpu.icache.tags.occ_percent::.cpu.inst     0.704183                       # Average percentage of cache occupancy
system.cpu.icache.tags.occ_percent::total     0.704183                       # Average percentage of cache occupancy
system.cpu.icache.tags.occ_task_id_blocks::1024          445                       # Occupied blocks per task id
system.cpu.icache.tags.age_task_id_blocks_1024::3          106                       # Occupied blocks per task id
system.cpu.icache.tags.age_task_id_blocks_1024::4          339                       # Occupied blocks per task id
system.cpu.icache.tags.occ_task_id_percent::1024     0.869141                       # Percentage of cache occupancy per task id
system.cpu.icache.tags.tag_accesses          19327563                       # Number of tag accesses
system.cpu.icache.tags.data_accesses         19327563                       # Number of data accesses
system.cpu.dtb.walker.pwrStateResidencyTicks::UNDEFINED  82790232500                       # Cumulative time (in ticks) in various power states
system.cpu.dtb.stage2_mmu.stage2_tlb.walker.pwrStateResidencyTicks::UNDEFINED  82790232500                       # Cumulative time (in ticks) in various power states
system.cpu.dcache.pwrStateResidencyTicks::UNDEFINED  82790232500                       # Cumulative time (in ticks) in various power states
system.cpu.dcache.demand_hits::.cpu.data     51312624                       # number of demand (read+write) hits
system.cpu.dcache.demand_hits::total         51312624                       # number of demand (read+write) hits
system.cpu.dcache.overall_hits::.cpu.data     51313133                       # number of overall hits
system.cpu.dcache.overall_hits::total        51313133                       # number of overall hits
system.cpu.dcache.demand_misses::.cpu.data       762500                       # number of demand (read+write) misses
system.cpu.dcache.demand_misses::total         762500                       # number of demand (read+write) misses
system.cpu.dcache.overall_misses::.cpu.data       770410                       # number of overall misses
system.cpu.dcache.overall_misses::total        770410                       # number of overall misses
system.cpu.dcache.demand_miss_latency::.cpu.data  23265258995                       # number of demand (read+write) miss cycles
system.cpu.dcache.demand_miss_latency::total  23265258995                       # number of demand (read+write) miss cycles
system.cpu.dcache.overall_miss_latency::.cpu.data  23265258995                       # number of overall miss cycles
system.cpu.dcache.overall_miss_latency::total  23265258995                       # number of overall miss cycles
system.cpu.dcache.demand_accesses::.cpu.data     52075124                       # number of demand (read+write) accesses
system.cpu.dcache.demand_accesses::total     52075124                       # number of demand (read+write) accesses
system.cpu.dcache.overall_accesses::.cpu.data     52083543                       # number of overall (read+write) accesses
system.cpu.dcache.overall_accesses::total     52083543                       # number of overall (read+write) accesses
system.cpu.dcache.demand_miss_rate::.cpu.data     0.014642                       # miss rate for demand accesses
system.cpu.dcache.demand_miss_rate::total     0.014642                       # miss rate for demand accesses
system.cpu.dcache.overall_miss_rate::.cpu.data     0.014792                       # miss rate for overall accesses
system.cpu.dcache.overall_miss_rate::total     0.014792                       # miss rate for overall accesses
system.cpu.dcache.demand_avg_miss_latency::.cpu.data 30511.815075                       # average overall miss latency
system.cpu.dcache.demand_avg_miss_latency::total 30511.815075                       # average overall miss latency
system.cpu.dcache.overall_avg_miss_latency::.cpu.data 30198.542328                       # average overall miss latency
system.cpu.dcache.overall_avg_miss_latency::total 30198.542328                       # average overall miss latency
system.cpu.dcache.blocked_cycles::no_mshrs       165980                       # number of cycles access was blocked
system.cpu.dcache.blocked_cycles::no_targets            0                       # number of cycles access was blocked
system.cpu.dcache.blocked::no_mshrs              1835                       # number of cycles access was blocked
system.cpu.dcache.blocked::no_targets               0                       # number of cycles access was blocked
system.cpu.dcache.avg_blocked_cycles::no_mshrs    90.452316                       # average number of cycles each access was blocked
system.cpu.dcache.avg_blocked_cycles::no_targets          nan                       # average number of cycles each access was blocked
system.cpu.dcache.writebacks::.writebacks       652897                       # number of writebacks
system.cpu.dcache.writebacks::total            652897                       # number of writebacks
system.cpu.dcache.demand_mshr_hits::.cpu.data        58690                       # number of demand (read+write) MSHR hits
system.cpu.dcache.demand_mshr_hits::total        58690                       # number of demand (read+write) MSHR hits
system.cpu.dcache.overall_mshr_hits::.cpu.data        58690                       # number of overall MSHR hits
system.cpu.dcache.overall_mshr_hits::total        58690                       # number of overall MSHR hits
system.cpu.dcache.demand_mshr_misses::.cpu.data       703810                       # number of demand (read+write) MSHR misses
system.cpu.dcache.demand_mshr_misses::total       703810                       # number of demand (read+write) MSHR misses
system.cpu.dcache.overall_mshr_misses::.cpu.data       711715                       # number of overall MSHR misses
system.cpu.dcache.overall_mshr_misses::total       711715                       # number of overall MSHR misses
system.cpu.dcache.demand_mshr_miss_latency::.cpu.data  20999900000                       # number of demand (read+write) MSHR miss cycles
system.cpu.dcache.demand_mshr_miss_latency::total  20999900000                       # number of demand (read+write) MSHR miss cycles
system.cpu.dcache.overall_mshr_miss_latency::.cpu.data  21544591999                       # number of overall MSHR miss cycles
system.cpu.dcache.overall_mshr_miss_latency::total  21544591999                       # number of overall MSHR miss cycles
system.cpu.dcache.demand_mshr_miss_rate::.cpu.data     0.013515                       # mshr miss rate for demand accesses
system.cpu.dcache.demand_mshr_miss_rate::total     0.013515                       # mshr miss rate for demand accesses
system.cpu.dcache.overall_mshr_miss_rate::.cpu.data     0.013665                       # mshr miss rate for overall accesses
system.cpu.dcache.overall_mshr_miss_rate::total     0.013665                       # mshr miss rate for overall accesses
system.cpu.dcache.demand_avg_mshr_miss_latency::.cpu.data 29837.456132                       # average overall mshr miss latency
system.cpu.dcache.demand_avg_mshr_miss_latency::total 29837.456132                       # average overall mshr miss latency
system.cpu.dcache.overall_avg_mshr_miss_latency::.cpu.data 30271.375479                       # average overall mshr miss latency
system.cpu.dcache.overall_avg_mshr_miss_latency::total 30271.375479                       # average overall mshr miss latency
system.cpu.dcache.replacements                 710691                       # number of replacements
system.cpu.dcache.ReadReq_hits::.cpu.data     40707199                       # number of ReadReq hits
system.cpu.dcache.ReadReq_hits::total        40707199                       # number of ReadReq hits
system.cpu.dcache.ReadReq_misses::.cpu.data       417834                       # number of ReadReq misses
system.cpu.dcache.ReadReq_misses::total        417834                       # number of ReadReq misses
system.cpu.dcache.ReadReq_miss_latency::.cpu.data   8490345000                       # number of ReadReq miss cycles
system.cpu.dcache.ReadReq_miss_latency::total   8490345000                       # number of ReadReq miss cycles
system.cpu.dcache.ReadReq_accesses::.cpu.data     41125033                       # number of ReadReq accesses(hits+misses)
system.cpu.dcache.ReadReq_accesses::total     41125033                       # number of ReadReq accesses(hits+misses)
system.cpu.dcache.ReadReq_miss_rate::.cpu.data     0.010160                       # miss rate for ReadReq accesses
system.cpu.dcache.ReadReq_miss_rate::total     0.010160                       # miss rate for ReadReq accesses
system.cpu.dcache.ReadReq_avg_miss_latency::.cpu.data 20319.899769                       # average ReadReq miss latency
system.cpu.dcache.ReadReq_avg_miss_latency::total 20319.899769                       # average ReadReq miss latency
system.cpu.dcache.ReadReq_mshr_hits::.cpu.data          405                       # number of ReadReq MSHR hits
system.cpu.dcache.ReadReq_mshr_hits::total          405                       # number of ReadReq MSHR hits
system.cpu.dcache.ReadReq_mshr_misses::.cpu.data       417429                       # number of ReadReq MSHR misses
system.cpu.dcache.ReadReq_mshr_misses::total       417429                       # number of ReadReq MSHR misses
system.cpu.dcache.ReadReq_mshr_miss_latency::.cpu.data   8049003500                       # number of ReadReq MSHR miss cycles
system.cpu.dcache.ReadReq_mshr_miss_latency::total   8049003500                       # number of ReadReq MSHR miss cycles
system.cpu.dcache.ReadReq_mshr_miss_rate::.cpu.data     0.010150                       # mshr miss rate for ReadReq accesses
system.cpu.dcache.ReadReq_mshr_miss_rate::total     0.010150                       # mshr miss rate for ReadReq accesses
system.cpu.dcache.ReadReq_avg_mshr_miss_latency::.cpu.data 19282.329450                       # average ReadReq mshr miss latency
system.cpu.dcache.ReadReq_avg_mshr_miss_latency::total 19282.329450                       # average ReadReq mshr miss latency
system.cpu.dcache.WriteReq_hits::.cpu.data     10605425                       # number of WriteReq hits
system.cpu.dcache.WriteReq_hits::total       10605425                       # number of WriteReq hits
system.cpu.dcache.WriteReq_misses::.cpu.data       344666                       # number of WriteReq misses
system.cpu.dcache.WriteReq_misses::total       344666                       # number of WriteReq misses
system.cpu.dcache.WriteReq_miss_latency::.cpu.data  14774913995                       # number of WriteReq miss cycles
system.cpu.dcache.WriteReq_miss_latency::total  14774913995                       # number of WriteReq miss cycles
system.cpu.dcache.WriteReq_accesses::.cpu.data     10950091                       # number of WriteReq accesses(hits+misses)
system.cpu.dcache.WriteReq_accesses::total     10950091                       # number of WriteReq accesses(hits+misses)
system.cpu.dcache.WriteReq_miss_rate::.cpu.data     0.031476                       # miss rate for WriteReq accesses
system.cpu.dcache.WriteReq_miss_rate::total     0.031476                       # miss rate for WriteReq accesses
system.cpu.dcache.WriteReq_avg_miss_latency::.cpu.data 42867.338220                       # average WriteReq miss latency
system.cpu.dcache.WriteReq_avg_miss_latency::total 42867.338220                       # average WriteReq miss latency
system.cpu.dcache.WriteReq_mshr_hits::.cpu.data        58285                       # number of WriteReq MSHR hits
system.cpu.dcache.WriteReq_mshr_hits::total        58285                       # number of WriteReq MSHR hits
system.cpu.dcache.WriteReq_mshr_misses::.cpu.data       286381                       # number of WriteReq MSHR misses
system.cpu.dcache.WriteReq_mshr_misses::total       286381                       # number of WriteReq MSHR misses
system.cpu.dcache.WriteReq_mshr_miss_latency::.cpu.data  12950896500                       # number of WriteReq MSHR miss cycles
system.cpu.dcache.WriteReq_mshr_miss_latency::total  12950896500                       # number of WriteReq MSHR miss cycles
system.cpu.dcache.WriteReq_mshr_miss_rate::.cpu.data     0.026153                       # mshr miss rate for WriteReq accesses
system.cpu.dcache.WriteReq_mshr_miss_rate::total     0.026153                       # mshr miss rate for WriteReq accesses
system.cpu.dcache.WriteReq_avg_mshr_miss_latency::.cpu.data 45222.610788                       # average WriteReq mshr miss latency
system.cpu.dcache.WriteReq_avg_mshr_miss_latency::total 45222.610788                       # average WriteReq mshr miss latency
system.cpu.dcache.SoftPFReq_hits::.cpu.data          509                       # number of SoftPFReq hits
system.cpu.dcache.SoftPFReq_hits::total           509                       # number of SoftPFReq hits
system.cpu.dcache.SoftPFReq_misses::.cpu.data         7910                       # number of SoftPFReq misses
system.cpu.dcache.SoftPFReq_misses::total         7910                       # number of SoftPFReq misses
system.cpu.dcache.SoftPFReq_accesses::.cpu.data         8419                       # number of SoftPFReq accesses(hits+misses)
system.cpu.dcache.SoftPFReq_accesses::total         8419                       # number of SoftPFReq accesses(hits+misses)
system.cpu.dcache.SoftPFReq_miss_rate::.cpu.data     0.939542                       # miss rate for SoftPFReq accesses
system.cpu.dcache.SoftPFReq_miss_rate::total     0.939542                       # miss rate for SoftPFReq accesses
system.cpu.dcache.SoftPFReq_mshr_misses::.cpu.data         7905                       # number of SoftPFReq MSHR misses
system.cpu.dcache.SoftPFReq_mshr_misses::total         7905                       # number of SoftPFReq MSHR misses
system.cpu.dcache.SoftPFReq_mshr_miss_latency::.cpu.data    544691999                       # number of SoftPFReq MSHR miss cycles
system.cpu.dcache.SoftPFReq_mshr_miss_latency::total    544691999                       # number of SoftPFReq MSHR miss cycles
system.cpu.dcache.SoftPFReq_mshr_miss_rate::.cpu.data     0.938948                       # mshr miss rate for SoftPFReq accesses
system.cpu.dcache.SoftPFReq_mshr_miss_rate::total     0.938948                       # mshr miss rate for SoftPFReq accesses
system.cpu.dcache.SoftPFReq_avg_mshr_miss_latency::.cpu.data 68904.743707                       # average SoftPFReq mshr miss latency
system.cpu.dcache.SoftPFReq_avg_mshr_miss_latency::total 68904.743707                       # average SoftPFReq mshr miss latency
system.cpu.dcache.LoadLockedReq_hits::.cpu.data           38                       # number of LoadLockedReq hits
system.cpu.dcache.LoadLockedReq_hits::total           38                       # number of LoadLockedReq hits
system.cpu.dcache.LoadLockedReq_accesses::.cpu.data           38                       # number of LoadLockedReq accesses(hits+misses)
system.cpu.dcache.LoadLockedReq_accesses::total           38                       # number of LoadLockedReq accesses(hits+misses)
system.cpu.dcache.StoreCondReq_hits::.cpu.data           38                       # number of StoreCondReq hits
system.cpu.dcache.StoreCondReq_hits::total           38                       # number of StoreCondReq hits
system.cpu.dcache.StoreCondReq_accesses::.cpu.data           38                       # number of StoreCondReq accesses(hits+misses)
system.cpu.dcache.StoreCondReq_accesses::total           38                       # number of StoreCondReq accesses(hits+misses)
system.cpu.dcache.tags.pwrStateResidencyTicks::UNDEFINED  82790232500                       # Cumulative time (in ticks) in various power states
system.cpu.dcache.tags.tagsinuse          1008.089753                       # Cycle average of tags in use
system.cpu.dcache.tags.total_refs            52024924                       # Total number of references to valid blocks.
system.cpu.dcache.tags.sampled_refs            711715                       # Sample count of references to valid blocks.
system.cpu.dcache.tags.avg_refs             73.097973                       # Average number of references to valid blocks.
system.cpu.dcache.tags.warmup_cycle            176500                       # Cycle when the warmup percentage was hit.
system.cpu.dcache.tags.occ_blocks::.cpu.data  1008.089753                       # Average occupied blocks per requestor
system.cpu.dcache.tags.occ_percent::.cpu.data     0.984463                       # Average percentage of cache occupancy
system.cpu.dcache.tags.occ_percent::total     0.984463                       # Average percentage of cache occupancy
system.cpu.dcache.tags.occ_task_id_blocks::1024         1024                       # Occupied blocks per task id
system.cpu.dcache.tags.age_task_id_blocks_1024::0          260                       # Occupied blocks per task id
system.cpu.dcache.tags.age_task_id_blocks_1024::1          457                       # Occupied blocks per task id
system.cpu.dcache.tags.age_task_id_blocks_1024::2          305                       # Occupied blocks per task id
system.cpu.dcache.tags.age_task_id_blocks_1024::3            1                       # Occupied blocks per task id
system.cpu.dcache.tags.age_task_id_blocks_1024::4            1                       # Occupied blocks per task id
system.cpu.dcache.tags.occ_task_id_percent::1024            1                       # Percentage of cache occupancy per task id
system.cpu.dcache.tags.tag_accesses         104878953                       # Number of tag accesses
system.cpu.dcache.tags.data_accesses        104878953                       # Number of data accesses
system.cpu.itb.walker.pwrStateResidencyTicks::UNDEFINED  82790232500                       # Cumulative time (in ticks) in various power states
system.cpu.itb.stage2_mmu.stage2_tlb.walker.pwrStateResidencyTicks::UNDEFINED  82790232500                       # Cumulative time (in ticks) in various power states

---------- End Simulation Statistics   ----------
