
---------- Begin Simulation Statistics ----------
final_tick                                81299218000                       # Number of ticks from beginning of simulation (restored from checkpoints and never reset)
host_inst_rate                                 276897                       # Simulator instruction rate (inst/s)
host_mem_usage                                 693812                       # Number of bytes of host memory used
host_op_rate                                   277441                       # Simulator op (including micro ops) rate (op/s)
host_seconds                                   361.15                       # Real time elapsed on the host
host_tick_rate                              225115124                       # Simulator tick rate (ticks/s)
sim_freq                                 1000000000000                       # Frequency of simulated ticks
sim_insts                                   100000001                       # Number of instructions simulated
sim_ops                                     100196363                       # Number of ops (including micro ops) simulated
sim_seconds                                  0.081299                       # Number of seconds simulated
sim_ticks                                 81299218000                       # Number of ticks simulated
system.cpu.branchPred.BTBCorrect                    0                       # Number of correct BTB predictions (this stat may not work properly.
system.cpu.branchPred.BTBHitPct             99.616955                       # BTB Hit Percentage
system.cpu.branchPred.BTBHits                 2095612                       # Number of BTB hits
system.cpu.branchPred.BTBLookups              2103670                       # Number of BTB lookups
system.cpu.branchPred.RASInCorrect                  5                       # Number of incorrect RAS predictions.
system.cpu.branchPred.condIncorrect             81389                       # Number of conditional branches incorrect
system.cpu.branchPred.condPredicted           3728137                       # Number of conditional branches predicted
system.cpu.branchPred.indirectHits                292                       # Number of indirect target hits.
system.cpu.branchPred.indirectLookups             998                       # Number of indirect predictor lookups.
system.cpu.branchPred.indirectMisses              706                       # Number of indirect misses.
system.cpu.branchPred.lookups                 4478246                       # Number of BP lookups
system.cpu.branchPred.usedRAS                   65356                       # Number of times the RAS was used to get a target.
system.cpu.branchPredindirectMispredicted          168                       # Number of mispredicted indirect branches.
system.cpu.committedInsts                   100000001                       # Number of instructions committed
system.cpu.committedOps                     100196363                       # Number of ops (including micro ops) committed
system.cpu.cpi                               1.625984                       # CPI: cycles per instruction
system.cpu.discardedOps                        190786                       # Number of ops (including micro ops) which were discarded before commit
system.cpu.dtb.accesses                             0                       # DTB accesses
system.cpu.dtb.align_faults                         0                       # Number of TLB faults due to alignment restrictions
system.cpu.dtb.domain_faults                        0                       # Number of TLB faults due to domain restrictions
system.cpu.dtb.flush_entries                        0                       # Number of entries that have been flushed from TLB
system.cpu.dtb.flush_tlb                            0                       # Number of times complete TLB was flushed
system.cpu.dtb.flush_tlb_asid                       0                       # Number of times TLB was flushed by ASID
system.cpu.dtb.flush_tlb_mva                        0                       # Number of times TLB was flushed by MVA
system.cpu.dtb.flush_tlb_mva_asid                   0                       # Number of times TLB was flushed by MVA & ASID
system.cpu.dtb.hits                                 0                       # DTB hits
system.cpu.dtb.inst_accesses                        0                       # ITB inst accesses
system.cpu.dtb.inst_hits                            0                       # ITB inst hits
system.cpu.dtb.inst_misses                          0                       # ITB inst misses
system.cpu.dtb.misses                               0                       # DTB misses
system.cpu.dtb.perms_faults                         0                       # Number of TLB faults due to permissions restrictions
system.cpu.dtb.prefetch_faults                      0                       # Number of TLB faults due to prefetch
system.cpu.dtb.read_accesses                        0                       # DTB read accesses
system.cpu.dtb.read_hits                            0                       # DTB read hits
system.cpu.dtb.read_misses                          0                       # DTB read misses
system.cpu.dtb.stage2_mmu.stage2_tlb.accesses            0                       # DTB accesses
system.cpu.dtb.stage2_mmu.stage2_tlb.align_faults            0                       # Number of TLB faults due to alignment restrictions
system.cpu.dtb.stage2_mmu.stage2_tlb.domain_faults            0                       # Number of TLB faults due to domain restrictions
system.cpu.dtb.stage2_mmu.stage2_tlb.flush_entries            0                       # Number of entries that have been flushed from TLB
system.cpu.dtb.stage2_mmu.stage2_tlb.flush_tlb            0                       # Number of times complete TLB was flushed
system.cpu.dtb.stage2_mmu.stage2_tlb.flush_tlb_asid            0                       # Number of times TLB was flushed by ASID
system.cpu.dtb.stage2_mmu.stage2_tlb.flush_tlb_mva            0                       # Number of times TLB was flushed by MVA
system.cpu.dtb.stage2_mmu.stage2_tlb.flush_tlb_mva_asid            0                       # Number of times TLB was flushed by MVA & ASID
system.cpu.dtb.stage2_mmu.stage2_tlb.hits            0                       # DTB hits
system.cpu.dtb.stage2_mmu.stage2_tlb.inst_accesses            0                       # ITB inst accesses
system.cpu.dtb.stage2_mmu.stage2_tlb.inst_hits            0                       # ITB inst hits
system.cpu.dtb.stage2_mmu.stage2_tlb.inst_misses            0                       # ITB inst misses
system.cpu.dtb.stage2_mmu.stage2_tlb.misses            0                       # DTB misses
system.cpu.dtb.stage2_mmu.stage2_tlb.perms_faults            0                       # Number of TLB faults due to permissions restrictions
system.cpu.dtb.stage2_mmu.stage2_tlb.prefetch_faults            0                       # Number of TLB faults due to prefetch
system.cpu.dtb.stage2_mmu.stage2_tlb.read_accesses            0                       # DTB read accesses
system.cpu.dtb.stage2_mmu.stage2_tlb.read_hits            0                       # DTB read hits
system.cpu.dtb.stage2_mmu.stage2_tlb.read_misses            0                       # DTB read misses
system.cpu.dtb.stage2_mmu.stage2_tlb.walker.walkRequestOrigin_Requested::Data            0                       # Table walker requests started/completed, data/inst
system.cpu.dtb.stage2_mmu.stage2_tlb.walker.walkRequestOrigin_Requested::Inst            0                       # Table walker requests started/completed, data/inst
system.cpu.dtb.stage2_mmu.stage2_tlb.walker.walkRequestOrigin_Requested::total            0                       # Table walker requests started/completed, data/inst
system.cpu.dtb.stage2_mmu.stage2_tlb.walker.walkRequestOrigin_Completed::Data            0                       # Table walker requests started/completed, data/inst
system.cpu.dtb.stage2_mmu.stage2_tlb.walker.walkRequestOrigin_Completed::Inst            0                       # Table walker requests started/completed, data/inst
system.cpu.dtb.stage2_mmu.stage2_tlb.walker.walkRequestOrigin_Completed::total            0                       # Table walker requests started/completed, data/inst
system.cpu.dtb.stage2_mmu.stage2_tlb.walker.walkRequestOrigin::total            0                       # Table walker requests started/completed, data/inst
system.cpu.dtb.stage2_mmu.stage2_tlb.walker.walks            0                       # Table walker walks requested
system.cpu.dtb.stage2_mmu.stage2_tlb.write_accesses            0                       # DTB write accesses
system.cpu.dtb.stage2_mmu.stage2_tlb.write_hits            0                       # DTB write hits
system.cpu.dtb.stage2_mmu.stage2_tlb.write_misses            0                       # DTB write misses
system.cpu.dtb.walker.walkRequestOrigin_Requested::Data            0                       # Table walker requests started/completed, data/inst
system.cpu.dtb.walker.walkRequestOrigin_Requested::Inst            0                       # Table walker requests started/completed, data/inst
system.cpu.dtb.walker.walkRequestOrigin_Requested::total            0                       # Table walker requests started/completed, data/inst
system.cpu.dtb.walker.walkRequestOrigin_Completed::Data            0                       # Table walker requests started/completed, data/inst
system.cpu.dtb.walker.walkRequestOrigin_Completed::Inst            0                       # Table walker requests started/completed, data/inst
system.cpu.dtb.walker.walkRequestOrigin_Completed::total            0                       # Table walker requests started/completed, data/inst
system.cpu.dtb.walker.walkRequestOrigin::total            0                       # Table walker requests started/completed, data/inst
system.cpu.dtb.walker.walks                         0                       # Table walker walks requested
system.cpu.dtb.write_accesses                       0                       # DTB write accesses
system.cpu.dtb.write_hits                           0                       # DTB write hits
system.cpu.dtb.write_misses                         0                       # DTB write misses
system.cpu.fetch2.amo_instructions                  0                       # Number of memory atomic instructions successfully decoded
system.cpu.fetch2.fp_instructions                   0                       # Number of floating point instructions successfully decoded
system.cpu.fetch2.int_instructions           42610553                       # Number of integer instructions successfully decoded
system.cpu.fetch2.load_instructions          43403304                       # Number of memory load instructions successfully decoded
system.cpu.fetch2.store_instructions         11001616                       # Number of memory store instructions successfully decoded
system.cpu.fetch2.vec_instructions                  0                       # Number of SIMD instructions successfully decoded
system.cpu.idleCycles                        30247509                       # Total number of cycles that the object has spent stopped
system.cpu.ipc                               0.615012                       # IPC: instructions per cycle
system.cpu.itb.accesses                             0                       # DTB accesses
system.cpu.itb.align_faults                         0                       # Number of TLB faults due to alignment restrictions
system.cpu.itb.domain_faults                        0                       # Number of TLB faults due to domain restrictions
system.cpu.itb.flush_entries                        0                       # Number of entries that have been flushed from TLB
system.cpu.itb.flush_tlb                            0                       # Number of times complete TLB was flushed
system.cpu.itb.flush_tlb_asid                       0                       # Number of times TLB was flushed by ASID
system.cpu.itb.flush_tlb_mva                        0                       # Number of times TLB was flushed by MVA
system.cpu.itb.flush_tlb_mva_asid                   0                       # Number of times TLB was flushed by MVA & ASID
system.cpu.itb.hits                                 0                       # DTB hits
system.cpu.itb.inst_accesses                        0                       # ITB inst accesses
system.cpu.itb.inst_hits                            0                       # ITB inst hits
system.cpu.itb.inst_misses                          0                       # ITB inst misses
system.cpu.itb.misses                               0                       # DTB misses
system.cpu.itb.perms_faults                         0                       # Number of TLB faults due to permissions restrictions
system.cpu.itb.prefetch_faults                      0                       # Number of TLB faults due to prefetch
system.cpu.itb.read_accesses                        0                       # DTB read accesses
system.cpu.itb.read_hits                            0                       # DTB read hits
system.cpu.itb.read_misses                          0                       # DTB read misses
system.cpu.itb.stage2_mmu.stage2_tlb.accesses            0                       # DTB accesses
system.cpu.itb.stage2_mmu.stage2_tlb.align_faults            0                       # Number of TLB faults due to alignment restrictions
system.cpu.itb.stage2_mmu.stage2_tlb.domain_faults            0                       # Number of TLB faults due to domain restrictions
system.cpu.itb.stage2_mmu.stage2_tlb.flush_entries            0                       # Number of entries that have been flushed from TLB
system.cpu.itb.stage2_mmu.stage2_tlb.flush_tlb            0                       # Number of times complete TLB was flushed
system.cpu.itb.stage2_mmu.stage2_tlb.flush_tlb_asid            0                       # Number of times TLB was flushed by ASID
system.cpu.itb.stage2_mmu.stage2_tlb.flush_tlb_mva            0                       # Number of times TLB was flushed by MVA
system.cpu.itb.stage2_mmu.stage2_tlb.flush_tlb_mva_asid            0                       # Number of times TLB was flushed by MVA & ASID
system.cpu.itb.stage2_mmu.stage2_tlb.hits            0                       # DTB hits
system.cpu.itb.stage2_mmu.stage2_tlb.inst_accesses            0                       # ITB inst accesses
system.cpu.itb.stage2_mmu.stage2_tlb.inst_hits            0                       # ITB inst hits
system.cpu.itb.stage2_mmu.stage2_tlb.inst_misses            0                       # ITB inst misses
system.cpu.itb.stage2_mmu.stage2_tlb.misses            0                       # DTB misses
system.cpu.itb.stage2_mmu.stage2_tlb.perms_faults            0                       # Number of TLB faults due to permissions restrictions
system.cpu.itb.stage2_mmu.stage2_tlb.prefetch_faults            0                       # Number of TLB faults due to prefetch
system.cpu.itb.stage2_mmu.stage2_tlb.read_accesses            0                       # DTB read accesses
system.cpu.itb.stage2_mmu.stage2_tlb.read_hits            0                       # DTB read hits
system.cpu.itb.stage2_mmu.stage2_tlb.read_misses            0                       # DTB read misses
system.cpu.itb.stage2_mmu.stage2_tlb.walker.walkRequestOrigin_Requested::Data            0                       # Table walker requests started/completed, data/inst
system.cpu.itb.stage2_mmu.stage2_tlb.walker.walkRequestOrigin_Requested::Inst            0                       # Table walker requests started/completed, data/inst
system.cpu.itb.stage2_mmu.stage2_tlb.walker.walkRequestOrigin_Requested::total            0                       # Table walker requests started/completed, data/inst
system.cpu.itb.stage2_mmu.stage2_tlb.walker.walkRequestOrigin_Completed::Data            0                       # Table walker requests started/completed, data/inst
system.cpu.itb.stage2_mmu.stage2_tlb.walker.walkRequestOrigin_Completed::Inst            0                       # Table walker requests started/completed, data/inst
system.cpu.itb.stage2_mmu.stage2_tlb.walker.walkRequestOrigin_Completed::total            0                       # Table walker requests started/completed, data/inst
system.cpu.itb.stage2_mmu.stage2_tlb.walker.walkRequestOrigin::total            0                       # Table walker requests started/completed, data/inst
system.cpu.itb.stage2_mmu.stage2_tlb.walker.walks            0                       # Table walker walks requested
system.cpu.itb.stage2_mmu.stage2_tlb.write_accesses            0                       # DTB write accesses
system.cpu.itb.stage2_mmu.stage2_tlb.write_hits            0                       # DTB write hits
system.cpu.itb.stage2_mmu.stage2_tlb.write_misses            0                       # DTB write misses
system.cpu.itb.walker.walkRequestOrigin_Requested::Data            0                       # Table walker requests started/completed, data/inst
system.cpu.itb.walker.walkRequestOrigin_Requested::Inst            0                       # Table walker requests started/completed, data/inst
system.cpu.itb.walker.walkRequestOrigin_Requested::total            0                       # Table walker requests started/completed, data/inst
system.cpu.itb.walker.walkRequestOrigin_Completed::Data            0                       # Table walker requests started/completed, data/inst
system.cpu.itb.walker.walkRequestOrigin_Completed::Inst            0                       # Table walker requests started/completed, data/inst
system.cpu.itb.walker.walkRequestOrigin_Completed::total            0                       # Table walker requests started/completed, data/inst
system.cpu.itb.walker.walkRequestOrigin::total            0                       # Table walker requests started/completed, data/inst
system.cpu.itb.walker.walks                         0                       # Table walker walks requested
system.cpu.itb.write_accesses                       0                       # DTB write accesses
system.cpu.itb.write_hits                           0                       # DTB write hits
system.cpu.itb.write_misses                         0                       # DTB write misses
system.cpu.numCycles                        162598436                       # number of cpu cycles simulated
system.cpu.numFetchSuspends                         0                       # Number of times Execute suspended instruction fetching
system.cpu.numWorkItemsCompleted                    0                       # number of work items this cpu completed
system.cpu.numWorkItemsStarted                      0                       # number of work items this cpu started
system.cpu.op_class_0::No_OpClass                   0      0.00%      0.00% # Class of committed instruction
system.cpu.op_class_0::IntAlu                46531400     46.44%     46.44% # Class of committed instruction
system.cpu.op_class_0::IntMult                  20720      0.02%     46.46% # Class of committed instruction
system.cpu.op_class_0::IntDiv                       0      0.00%     46.46% # Class of committed instruction
system.cpu.op_class_0::FloatAdd                     0      0.00%     46.46% # Class of committed instruction
system.cpu.op_class_0::FloatCmp                     0      0.00%     46.46% # Class of committed instruction
system.cpu.op_class_0::FloatCvt                     0      0.00%     46.46% # Class of committed instruction
system.cpu.op_class_0::FloatMult                    0      0.00%     46.46% # Class of committed instruction
system.cpu.op_class_0::FloatMultAcc                 0      0.00%     46.46% # Class of committed instruction
system.cpu.op_class_0::FloatDiv                     0      0.00%     46.46% # Class of committed instruction
system.cpu.op_class_0::FloatMisc                    0      0.00%     46.46% # Class of committed instruction
system.cpu.op_class_0::FloatSqrt                    0      0.00%     46.46% # Class of committed instruction
system.cpu.op_class_0::SimdAdd                      0      0.00%     46.46% # Class of committed instruction
system.cpu.op_class_0::SimdAddAcc                   0      0.00%     46.46% # Class of committed instruction
system.cpu.op_class_0::SimdAlu                      0      0.00%     46.46% # Class of committed instruction
system.cpu.op_class_0::SimdCmp                      0      0.00%     46.46% # Class of committed instruction
system.cpu.op_class_0::SimdCvt                      0      0.00%     46.46% # Class of committed instruction
system.cpu.op_class_0::SimdMisc                     0      0.00%     46.46% # Class of committed instruction
system.cpu.op_class_0::SimdMult                     0      0.00%     46.46% # Class of committed instruction
system.cpu.op_class_0::SimdMultAcc                  0      0.00%     46.46% # Class of committed instruction
system.cpu.op_class_0::SimdShift                    0      0.00%     46.46% # Class of committed instruction
system.cpu.op_class_0::SimdShiftAcc                 0      0.00%     46.46% # Class of committed instruction
system.cpu.op_class_0::SimdDiv                      0      0.00%     46.46% # Class of committed instruction
system.cpu.op_class_0::SimdSqrt                     0      0.00%     46.46% # Class of committed instruction
system.cpu.op_class_0::SimdFloatAdd                 0      0.00%     46.46% # Class of committed instruction
system.cpu.op_class_0::SimdFloatAlu                 0      0.00%     46.46% # Class of committed instruction
system.cpu.op_class_0::SimdFloatCmp                 0      0.00%     46.46% # Class of committed instruction
system.cpu.op_class_0::SimdFloatCvt                 0      0.00%     46.46% # Class of committed instruction
system.cpu.op_class_0::SimdFloatDiv                 0      0.00%     46.46% # Class of committed instruction
system.cpu.op_class_0::SimdFloatMisc               18      0.00%     46.46% # Class of committed instruction
system.cpu.op_class_0::SimdFloatMult                0      0.00%     46.46% # Class of committed instruction
system.cpu.op_class_0::SimdFloatMultAcc             0      0.00%     46.46% # Class of committed instruction
system.cpu.op_class_0::SimdFloatSqrt                0      0.00%     46.46% # Class of committed instruction
system.cpu.op_class_0::SimdReduceAdd                0      0.00%     46.46% # Class of committed instruction
system.cpu.op_class_0::SimdReduceAlu                0      0.00%     46.46% # Class of committed instruction
system.cpu.op_class_0::SimdReduceCmp                0      0.00%     46.46% # Class of committed instruction
system.cpu.op_class_0::SimdFloatReduceAdd            0      0.00%     46.46% # Class of committed instruction
system.cpu.op_class_0::SimdFloatReduceCmp            0      0.00%     46.46% # Class of committed instruction
system.cpu.op_class_0::SimdAes                      0      0.00%     46.46% # Class of committed instruction
system.cpu.op_class_0::SimdAesMix                   0      0.00%     46.46% # Class of committed instruction
system.cpu.op_class_0::SimdSha1Hash                 0      0.00%     46.46% # Class of committed instruction
system.cpu.op_class_0::SimdSha1Hash2                0      0.00%     46.46% # Class of committed instruction
system.cpu.op_class_0::SimdSha256Hash               0      0.00%     46.46% # Class of committed instruction
system.cpu.op_class_0::SimdSha256Hash2              0      0.00%     46.46% # Class of committed instruction
system.cpu.op_class_0::SimdShaSigma2                0      0.00%     46.46% # Class of committed instruction
system.cpu.op_class_0::SimdShaSigma3                0      0.00%     46.46% # Class of committed instruction
system.cpu.op_class_0::SimdPredAlu                  0      0.00%     46.46% # Class of committed instruction
system.cpu.op_class_0::MemRead               42693601     42.61%     89.07% # Class of committed instruction
system.cpu.op_class_0::MemWrite              10950624     10.93%    100.00% # Class of committed instruction
system.cpu.op_class_0::FloatMemRead                 0      0.00%    100.00% # Class of committed instruction
system.cpu.op_class_0::FloatMemWrite                0      0.00%    100.00% # Class of committed instruction
system.cpu.op_class_0::IprAccess                    0      0.00%    100.00% # Class of committed instruction
system.cpu.op_class_0::InstPrefetch                 0      0.00%    100.00% # Class of committed instruction
system.cpu.op_class_0::total                100196363                       # Class of committed instruction
system.cpu.tickCycles                       132350927                       # Number of cycles that the object actually ticked
system.cpu.workload.numSyscalls                    84                       # Number of system calls
system.membus.snoop_filter.hit_multi_requests            0                       # Number of requests hitting in the snoop filter with multiple (>1) holders of the requested data.
system.membus.snoop_filter.hit_multi_snoops            0                       # Number of snoops hitting in the snoop filter with multiple (>1) holders of the requested data.
system.membus.snoop_filter.hit_single_requests        76383                       # Number of requests hitting in the snoop filter with a single holder of the requested data.
system.membus.snoop_filter.hit_single_snoops            0                       # Number of snoops hitting in the snoop filter with a single holder of the requested data.
system.membus.snoop_filter.tot_requests        185695                       # Total number of requests made to the snoop filter.
system.membus.snoop_filter.tot_snoops               0                       # Total number of snoops made to the snoop filter.
system.tol2bus.snoop_filter.hit_multi_requests          111                       # Number of requests hitting in the snoop filter with multiple (>1) holders of the requested data.
system.tol2bus.snoop_filter.hit_multi_snoops            0                       # Number of snoops hitting in the snoop filter with multiple (>1) holders of the requested data.
system.tol2bus.snoop_filter.hit_single_requests       595977                       # Number of requests hitting in the snoop filter with a single holder of the requested data.
system.tol2bus.snoop_filter.hit_single_snoops          283                       # Number of snoops hitting in the snoop filter with a single holder of the requested data.
system.tol2bus.snoop_filter.tot_requests      1192703                       # Total number of requests made to the snoop filter.
system.tol2bus.snoop_filter.tot_snoops            283                       # Total number of snoops made to the snoop filter.
system.membus.pwrStateResidencyTicks::UNDEFINED  81299218000                       # Cumulative time (in ticks) in various power states
system.membus.trans_dist::ReadResp              30114                       # Transaction distribution
system.membus.trans_dist::WritebackDirty        49641                       # Transaction distribution
system.membus.trans_dist::CleanEvict            26732                       # Transaction distribution
system.membus.trans_dist::ReadExReq             79208                       # Transaction distribution
system.membus.trans_dist::ReadExResp            79208                       # Transaction distribution
system.membus.trans_dist::ReadSharedReq         30114                       # Transaction distribution
system.membus.pkt_count_system.l2.mem_side::system.mem_ctrls.port       295017                       # Packet count per connected master and slave (bytes)
system.membus.pkt_count::total                 295017                       # Packet count per connected master and slave (bytes)
system.membus.pkt_size_system.l2.mem_side::system.mem_ctrls.port     20347264                       # Cumulative packet size per connected master and slave (bytes)
system.membus.pkt_size::total                20347264                       # Cumulative packet size per connected master and slave (bytes)
system.membus.snoops                                0                       # Total snoops (count)
system.membus.snoopTraffic                          0                       # Total snoop traffic (bytes)
system.membus.snoop_fanout::samples            109322                       # Request fanout histogram
system.membus.snoop_fanout::mean                    0                       # Request fanout histogram
system.membus.snoop_fanout::stdev                   0                       # Request fanout histogram
system.membus.snoop_fanout::underflows              0      0.00%      0.00% # Request fanout histogram
system.membus.snoop_fanout::0                  109322    100.00%    100.00% # Request fanout histogram
system.membus.snoop_fanout::1                       0      0.00%    100.00% # Request fanout histogram
system.membus.snoop_fanout::overflows               0      0.00%    100.00% # Request fanout histogram
system.membus.snoop_fanout::min_value               0                       # Request fanout histogram
system.membus.snoop_fanout::max_value               0                       # Request fanout histogram
system.membus.snoop_fanout::total              109322                       # Request fanout histogram
system.membus.respLayer1.occupancy         1020006250                       # Layer occupancy (ticks)
system.membus.respLayer1.utilization              1.3                       # Layer utilization (%)
system.membus.reqLayer0.occupancy           608022000                       # Layer occupancy (ticks)
system.membus.reqLayer0.utilization               0.7                       # Layer utilization (%)
system.tol2bus.pwrStateResidencyTicks::UNDEFINED  81299218000                       # Cumulative time (in ticks) in various power states
system.tol2bus.trans_dist::ReadResp            327819                       # Transaction distribution
system.tol2bus.trans_dist::WritebackDirty       612620                       # Transaction distribution
system.tol2bus.trans_dist::WritebackClean          302                       # Transaction distribution
system.tol2bus.trans_dist::CleanEvict           59710                       # Transaction distribution
system.tol2bus.trans_dist::ReadExReq           268908                       # Transaction distribution
system.tol2bus.trans_dist::ReadExResp          268907                       # Transaction distribution
system.tol2bus.trans_dist::ReadCleanReq           540                       # Transaction distribution
system.tol2bus.trans_dist::ReadSharedReq       327279                       # Transaction distribution
system.tol2bus.pkt_count_system.cpu.icache.mem_side::system.l2.cpu_side         1382                       # Packet count per connected master and slave (bytes)
system.tol2bus.pkt_count_system.cpu.dcache.mem_side::system.l2.cpu_side      1788047                       # Packet count per connected master and slave (bytes)
system.tol2bus.pkt_count::total               1789429                       # Packet count per connected master and slave (bytes)
system.tol2bus.pkt_size_system.cpu.icache.mem_side::system.l2.cpu_side       107776                       # Cumulative packet size per connected master and slave (bytes)
system.tol2bus.pkt_size_system.cpu.dcache.mem_side::system.l2.cpu_side    148373120                       # Cumulative packet size per connected master and slave (bytes)
system.tol2bus.pkt_size::total              148480896                       # Cumulative packet size per connected master and slave (bytes)
system.tol2bus.snoops                           76656                       # Total snoops (count)
system.tol2bus.snoopTraffic                   6354048                       # Total snoop traffic (bytes)
system.tol2bus.snoop_fanout::samples           673383                       # Request fanout histogram
system.tol2bus.snoop_fanout::mean            0.000587                       # Request fanout histogram
system.tol2bus.snoop_fanout::stdev           0.024213                       # Request fanout histogram
system.tol2bus.snoop_fanout::underflows             0      0.00%      0.00% # Request fanout histogram
system.tol2bus.snoop_fanout::0                 672988     99.94%     99.94% # Request fanout histogram
system.tol2bus.snoop_fanout::1                    395      0.06%    100.00% # Request fanout histogram
system.tol2bus.snoop_fanout::2                      0      0.00%    100.00% # Request fanout histogram
system.tol2bus.snoop_fanout::overflows              0      0.00%    100.00% # Request fanout histogram
system.tol2bus.snoop_fanout::min_value              0                       # Request fanout histogram
system.tol2bus.snoop_fanout::max_value              1                       # Request fanout histogram
system.tol2bus.snoop_fanout::total             673383                       # Request fanout histogram
system.tol2bus.reqLayer0.occupancy         1722913500                       # Layer occupancy (ticks)
system.tol2bus.reqLayer0.utilization              2.1                       # Layer utilization (%)
system.tol2bus.respLayer1.occupancy        1490467495                       # Layer occupancy (ticks)
system.tol2bus.respLayer1.utilization             1.8                       # Layer utilization (%)
system.tol2bus.respLayer0.occupancy           1350000                       # Layer occupancy (ticks)
system.tol2bus.respLayer0.utilization             0.0                       # Layer utilization (%)
system.voltage_domain.voltage                       1                       # Voltage in Volts
system.clk_domain.clock                          1000                       # Clock period in ticks
system.l2.pwrStateResidencyTicks::UNDEFINED  81299218000                       # Cumulative time (in ticks) in various power states
system.l2.demand_hits::.cpu.inst                  123                       # number of demand (read+write) hits
system.l2.demand_hits::.cpu.data               487277                       # number of demand (read+write) hits
system.l2.demand_hits::total                   487400                       # number of demand (read+write) hits
system.l2.overall_hits::.cpu.inst                 123                       # number of overall hits
system.l2.overall_hits::.cpu.data              487277                       # number of overall hits
system.l2.overall_hits::total                  487400                       # number of overall hits
system.l2.demand_misses::.cpu.inst                417                       # number of demand (read+write) misses
system.l2.demand_misses::.cpu.data             108910                       # number of demand (read+write) misses
system.l2.demand_misses::total                 109327                       # number of demand (read+write) misses
system.l2.overall_misses::.cpu.inst               417                       # number of overall misses
system.l2.overall_misses::.cpu.data            108910                       # number of overall misses
system.l2.overall_misses::total                109327                       # number of overall misses
system.l2.demand_miss_latency::.cpu.inst     36137000                       # number of demand (read+write) miss cycles
system.l2.demand_miss_latency::.cpu.data   9782491000                       # number of demand (read+write) miss cycles
system.l2.demand_miss_latency::total       9818628000                       # number of demand (read+write) miss cycles
system.l2.overall_miss_latency::.cpu.inst     36137000                       # number of overall miss cycles
system.l2.overall_miss_latency::.cpu.data   9782491000                       # number of overall miss cycles
system.l2.overall_miss_latency::total      9818628000                       # number of overall miss cycles
system.l2.demand_accesses::.cpu.inst              540                       # number of demand (read+write) accesses
system.l2.demand_accesses::.cpu.data           596187                       # number of demand (read+write) accesses
system.l2.demand_accesses::total               596727                       # number of demand (read+write) accesses
system.l2.overall_accesses::.cpu.inst             540                       # number of overall (read+write) accesses
system.l2.overall_accesses::.cpu.data          596187                       # number of overall (read+write) accesses
system.l2.overall_accesses::total              596727                       # number of overall (read+write) accesses
system.l2.demand_miss_rate::.cpu.inst        0.772222                       # miss rate for demand accesses
system.l2.demand_miss_rate::.cpu.data        0.182678                       # miss rate for demand accesses
system.l2.demand_miss_rate::total            0.183211                       # miss rate for demand accesses
system.l2.overall_miss_rate::.cpu.inst       0.772222                       # miss rate for overall accesses
system.l2.overall_miss_rate::.cpu.data       0.182678                       # miss rate for overall accesses
system.l2.overall_miss_rate::total           0.183211                       # miss rate for overall accesses
system.l2.demand_avg_miss_latency::.cpu.inst 86659.472422                       # average overall miss latency
system.l2.demand_avg_miss_latency::.cpu.data 89821.788633                       # average overall miss latency
system.l2.demand_avg_miss_latency::total 89809.726783                       # average overall miss latency
system.l2.overall_avg_miss_latency::.cpu.inst 86659.472422                       # average overall miss latency
system.l2.overall_avg_miss_latency::.cpu.data 89821.788633                       # average overall miss latency
system.l2.overall_avg_miss_latency::total 89809.726783                       # average overall miss latency
system.l2.blocked_cycles::no_mshrs                  0                       # number of cycles access was blocked
system.l2.blocked_cycles::no_targets                0                       # number of cycles access was blocked
system.l2.blocked::no_mshrs                         0                       # number of cycles access was blocked
system.l2.blocked::no_targets                       0                       # number of cycles access was blocked
system.l2.avg_blocked_cycles::no_mshrs            nan                       # average number of cycles each access was blocked
system.l2.avg_blocked_cycles::no_targets          nan                       # average number of cycles each access was blocked
system.l2.writebacks::.writebacks               49641                       # number of writebacks
system.l2.writebacks::total                     49641                       # number of writebacks
system.l2.demand_mshr_hits::.cpu.data               5                       # number of demand (read+write) MSHR hits
system.l2.demand_mshr_hits::total                   5                       # number of demand (read+write) MSHR hits
system.l2.overall_mshr_hits::.cpu.data              5                       # number of overall MSHR hits
system.l2.overall_mshr_hits::total                  5                       # number of overall MSHR hits
system.l2.demand_mshr_misses::.cpu.inst           417                       # number of demand (read+write) MSHR misses
system.l2.demand_mshr_misses::.cpu.data        108905                       # number of demand (read+write) MSHR misses
system.l2.demand_mshr_misses::total            109322                       # number of demand (read+write) MSHR misses
system.l2.overall_mshr_misses::.cpu.inst          417                       # number of overall MSHR misses
system.l2.overall_mshr_misses::.cpu.data       108905                       # number of overall MSHR misses
system.l2.overall_mshr_misses::total           109322                       # number of overall MSHR misses
system.l2.demand_mshr_miss_latency::.cpu.inst     31967000                       # number of demand (read+write) MSHR miss cycles
system.l2.demand_mshr_miss_latency::.cpu.data   8693091500                       # number of demand (read+write) MSHR miss cycles
system.l2.demand_mshr_miss_latency::total   8725058500                       # number of demand (read+write) MSHR miss cycles
system.l2.overall_mshr_miss_latency::.cpu.inst     31967000                       # number of overall MSHR miss cycles
system.l2.overall_mshr_miss_latency::.cpu.data   8693091500                       # number of overall MSHR miss cycles
system.l2.overall_mshr_miss_latency::total   8725058500                       # number of overall MSHR miss cycles
system.l2.demand_mshr_miss_rate::.cpu.inst     0.772222                       # mshr miss rate for demand accesses
system.l2.demand_mshr_miss_rate::.cpu.data     0.182669                       # mshr miss rate for demand accesses
system.l2.demand_mshr_miss_rate::total       0.183203                       # mshr miss rate for demand accesses
system.l2.overall_mshr_miss_rate::.cpu.inst     0.772222                       # mshr miss rate for overall accesses
system.l2.overall_mshr_miss_rate::.cpu.data     0.182669                       # mshr miss rate for overall accesses
system.l2.overall_mshr_miss_rate::total      0.183203                       # mshr miss rate for overall accesses
system.l2.demand_avg_mshr_miss_latency::.cpu.inst 76659.472422                       # average overall mshr miss latency
system.l2.demand_avg_mshr_miss_latency::.cpu.data 79822.703273                       # average overall mshr miss latency
system.l2.demand_avg_mshr_miss_latency::total 79810.637383                       # average overall mshr miss latency
system.l2.overall_avg_mshr_miss_latency::.cpu.inst 76659.472422                       # average overall mshr miss latency
system.l2.overall_avg_mshr_miss_latency::.cpu.data 79822.703273                       # average overall mshr miss latency
system.l2.overall_avg_mshr_miss_latency::total 79810.637383                       # average overall mshr miss latency
system.l2.replacements                          76656                       # number of replacements
system.l2.WritebackDirty_hits::.writebacks       562979                       # number of WritebackDirty hits
system.l2.WritebackDirty_hits::total           562979                       # number of WritebackDirty hits
system.l2.WritebackDirty_accesses::.writebacks       562979                       # number of WritebackDirty accesses(hits+misses)
system.l2.WritebackDirty_accesses::total       562979                       # number of WritebackDirty accesses(hits+misses)
system.l2.WritebackClean_hits::.writebacks          289                       # number of WritebackClean hits
system.l2.WritebackClean_hits::total              289                       # number of WritebackClean hits
system.l2.WritebackClean_accesses::.writebacks          289                       # number of WritebackClean accesses(hits+misses)
system.l2.WritebackClean_accesses::total          289                       # number of WritebackClean accesses(hits+misses)
system.l2.ReadExReq_hits::.cpu.data            189700                       # number of ReadExReq hits
system.l2.ReadExReq_hits::total                189700                       # number of ReadExReq hits
system.l2.ReadExReq_misses::.cpu.data           79208                       # number of ReadExReq misses
system.l2.ReadExReq_misses::total               79208                       # number of ReadExReq misses
system.l2.ReadExReq_miss_latency::.cpu.data   7266811000                       # number of ReadExReq miss cycles
system.l2.ReadExReq_miss_latency::total    7266811000                       # number of ReadExReq miss cycles
system.l2.ReadExReq_accesses::.cpu.data        268908                       # number of ReadExReq accesses(hits+misses)
system.l2.ReadExReq_accesses::total            268908                       # number of ReadExReq accesses(hits+misses)
system.l2.ReadExReq_miss_rate::.cpu.data     0.294554                       # miss rate for ReadExReq accesses
system.l2.ReadExReq_miss_rate::total         0.294554                       # miss rate for ReadExReq accesses
system.l2.ReadExReq_avg_miss_latency::.cpu.data 91743.397132                       # average ReadExReq miss latency
system.l2.ReadExReq_avg_miss_latency::total 91743.397132                       # average ReadExReq miss latency
system.l2.ReadExReq_mshr_misses::.cpu.data        79208                       # number of ReadExReq MSHR misses
system.l2.ReadExReq_mshr_misses::total          79208                       # number of ReadExReq MSHR misses
system.l2.ReadExReq_mshr_miss_latency::.cpu.data   6474731000                       # number of ReadExReq MSHR miss cycles
system.l2.ReadExReq_mshr_miss_latency::total   6474731000                       # number of ReadExReq MSHR miss cycles
system.l2.ReadExReq_mshr_miss_rate::.cpu.data     0.294554                       # mshr miss rate for ReadExReq accesses
system.l2.ReadExReq_mshr_miss_rate::total     0.294554                       # mshr miss rate for ReadExReq accesses
system.l2.ReadExReq_avg_mshr_miss_latency::.cpu.data 81743.397132                       # average ReadExReq mshr miss latency
system.l2.ReadExReq_avg_mshr_miss_latency::total 81743.397132                       # average ReadExReq mshr miss latency
system.l2.ReadCleanReq_hits::.cpu.inst            123                       # number of ReadCleanReq hits
system.l2.ReadCleanReq_hits::total                123                       # number of ReadCleanReq hits
system.l2.ReadCleanReq_misses::.cpu.inst          417                       # number of ReadCleanReq misses
system.l2.ReadCleanReq_misses::total              417                       # number of ReadCleanReq misses
system.l2.ReadCleanReq_miss_latency::.cpu.inst     36137000                       # number of ReadCleanReq miss cycles
system.l2.ReadCleanReq_miss_latency::total     36137000                       # number of ReadCleanReq miss cycles
system.l2.ReadCleanReq_accesses::.cpu.inst          540                       # number of ReadCleanReq accesses(hits+misses)
system.l2.ReadCleanReq_accesses::total            540                       # number of ReadCleanReq accesses(hits+misses)
system.l2.ReadCleanReq_miss_rate::.cpu.inst     0.772222                       # miss rate for ReadCleanReq accesses
system.l2.ReadCleanReq_miss_rate::total      0.772222                       # miss rate for ReadCleanReq accesses
system.l2.ReadCleanReq_avg_miss_latency::.cpu.inst 86659.472422                       # average ReadCleanReq miss latency
system.l2.ReadCleanReq_avg_miss_latency::total 86659.472422                       # average ReadCleanReq miss latency
system.l2.ReadCleanReq_mshr_misses::.cpu.inst          417                       # number of ReadCleanReq MSHR misses
system.l2.ReadCleanReq_mshr_misses::total          417                       # number of ReadCleanReq MSHR misses
system.l2.ReadCleanReq_mshr_miss_latency::.cpu.inst     31967000                       # number of ReadCleanReq MSHR miss cycles
system.l2.ReadCleanReq_mshr_miss_latency::total     31967000                       # number of ReadCleanReq MSHR miss cycles
system.l2.ReadCleanReq_mshr_miss_rate::.cpu.inst     0.772222                       # mshr miss rate for ReadCleanReq accesses
system.l2.ReadCleanReq_mshr_miss_rate::total     0.772222                       # mshr miss rate for ReadCleanReq accesses
system.l2.ReadCleanReq_avg_mshr_miss_latency::.cpu.inst 76659.472422                       # average ReadCleanReq mshr miss latency
system.l2.ReadCleanReq_avg_mshr_miss_latency::total 76659.472422                       # average ReadCleanReq mshr miss latency
system.l2.ReadSharedReq_hits::.cpu.data        297577                       # number of ReadSharedReq hits
system.l2.ReadSharedReq_hits::total            297577                       # number of ReadSharedReq hits
system.l2.ReadSharedReq_misses::.cpu.data        29702                       # number of ReadSharedReq misses
system.l2.ReadSharedReq_misses::total           29702                       # number of ReadSharedReq misses
system.l2.ReadSharedReq_miss_latency::.cpu.data   2515680000                       # number of ReadSharedReq miss cycles
system.l2.ReadSharedReq_miss_latency::total   2515680000                       # number of ReadSharedReq miss cycles
system.l2.ReadSharedReq_accesses::.cpu.data       327279                       # number of ReadSharedReq accesses(hits+misses)
system.l2.ReadSharedReq_accesses::total        327279                       # number of ReadSharedReq accesses(hits+misses)
system.l2.ReadSharedReq_miss_rate::.cpu.data     0.090754                       # miss rate for ReadSharedReq accesses
system.l2.ReadSharedReq_miss_rate::total     0.090754                       # miss rate for ReadSharedReq accesses
system.l2.ReadSharedReq_avg_miss_latency::.cpu.data 84697.326779                       # average ReadSharedReq miss latency
system.l2.ReadSharedReq_avg_miss_latency::total 84697.326779                       # average ReadSharedReq miss latency
system.l2.ReadSharedReq_mshr_hits::.cpu.data            5                       # number of ReadSharedReq MSHR hits
system.l2.ReadSharedReq_mshr_hits::total            5                       # number of ReadSharedReq MSHR hits
system.l2.ReadSharedReq_mshr_misses::.cpu.data        29697                       # number of ReadSharedReq MSHR misses
system.l2.ReadSharedReq_mshr_misses::total        29697                       # number of ReadSharedReq MSHR misses
system.l2.ReadSharedReq_mshr_miss_latency::.cpu.data   2218360500                       # number of ReadSharedReq MSHR miss cycles
system.l2.ReadSharedReq_mshr_miss_latency::total   2218360500                       # number of ReadSharedReq MSHR miss cycles
system.l2.ReadSharedReq_mshr_miss_rate::.cpu.data     0.090739                       # mshr miss rate for ReadSharedReq accesses
system.l2.ReadSharedReq_mshr_miss_rate::total     0.090739                       # mshr miss rate for ReadSharedReq accesses
system.l2.ReadSharedReq_avg_mshr_miss_latency::.cpu.data 74699.818163                       # average ReadSharedReq mshr miss latency
system.l2.ReadSharedReq_avg_mshr_miss_latency::total 74699.818163                       # average ReadSharedReq mshr miss latency
system.l2.tags.pwrStateResidencyTicks::UNDEFINED  81299218000                       # Cumulative time (in ticks) in various power states
system.l2.tags.tagsinuse                 31589.159052                       # Cycle average of tags in use
system.l2.tags.total_refs                     1192587                       # Total number of references to valid blocks.
system.l2.tags.sampled_refs                    109424                       # Sample count of references to valid blocks.
system.l2.tags.avg_refs                     10.898770                       # Average number of references to valid blocks.
system.l2.tags.warmup_cycle                     82000                       # Cycle when the warmup percentage was hit.
system.l2.tags.occ_blocks::.writebacks      53.256486                       # Average occupied blocks per requestor
system.l2.tags.occ_blocks::.cpu.inst        74.649214                       # Average occupied blocks per requestor
system.l2.tags.occ_blocks::.cpu.data     31461.253352                       # Average occupied blocks per requestor
system.l2.tags.occ_percent::.writebacks      0.001625                       # Average percentage of cache occupancy
system.l2.tags.occ_percent::.cpu.inst        0.002278                       # Average percentage of cache occupancy
system.l2.tags.occ_percent::.cpu.data        0.960121                       # Average percentage of cache occupancy
system.l2.tags.occ_percent::total            0.964025                       # Average percentage of cache occupancy
system.l2.tags.occ_task_id_blocks::1024         32768                       # Occupied blocks per task id
system.l2.tags.age_task_id_blocks_1024::2            3                       # Occupied blocks per task id
system.l2.tags.age_task_id_blocks_1024::3         2438                       # Occupied blocks per task id
system.l2.tags.age_task_id_blocks_1024::4        30327                       # Occupied blocks per task id
system.l2.tags.occ_task_id_percent::1024            1                       # Percentage of cache occupancy per task id
system.l2.tags.tag_accesses                   9650160                       # Number of tag accesses
system.l2.tags.data_accesses                  9650160                       # Number of data accesses
system.cpu_voltage_domain.voltage                   1                       # Voltage in Volts
system.mem_ctrls.pwrStateResidencyTicks::UNDEFINED  81299218000                       # Cumulative time (in ticks) in various power states
system.mem_ctrls.bytes_read::.cpu.inst          53376                       # Number of bytes read from this memory
system.mem_ctrls.bytes_read::.cpu.data       13939840                       # Number of bytes read from this memory
system.mem_ctrls.bytes_read::total           13993216                       # Number of bytes read from this memory
system.mem_ctrls.bytes_inst_read::.cpu.inst        53376                       # Number of instructions bytes read from this memory
system.mem_ctrls.bytes_inst_read::total         53376                       # Number of instructions bytes read from this memory
system.mem_ctrls.bytes_written::.writebacks      6354048                       # Number of bytes written to this memory
system.mem_ctrls.bytes_written::total         6354048                       # Number of bytes written to this memory
system.mem_ctrls.num_reads::.cpu.inst             417                       # Number of read requests responded to by this memory
system.mem_ctrls.num_reads::.cpu.data          108905                       # Number of read requests responded to by this memory
system.mem_ctrls.num_reads::total              109322                       # Number of read requests responded to by this memory
system.mem_ctrls.num_writes::.writebacks        49641                       # Number of write requests responded to by this memory
system.mem_ctrls.num_writes::total              49641                       # Number of write requests responded to by this memory
system.mem_ctrls.bw_read::.cpu.inst            656538                       # Total read bandwidth from this memory (bytes/s)
system.mem_ctrls.bw_read::.cpu.data         171463396                       # Total read bandwidth from this memory (bytes/s)
system.mem_ctrls.bw_read::total             172119934                       # Total read bandwidth from this memory (bytes/s)
system.mem_ctrls.bw_inst_read::.cpu.inst       656538                       # Instruction read bandwidth from this memory (bytes/s)
system.mem_ctrls.bw_inst_read::total           656538                       # Instruction read bandwidth from this memory (bytes/s)
system.mem_ctrls.bw_write::.writebacks       78156324                       # Write bandwidth from this memory (bytes/s)
system.mem_ctrls.bw_write::total             78156324                       # Write bandwidth from this memory (bytes/s)
system.mem_ctrls.bw_total::.writebacks       78156324                       # Total bandwidth to/from this memory (bytes/s)
system.mem_ctrls.bw_total::.cpu.inst           656538                       # Total bandwidth to/from this memory (bytes/s)
system.mem_ctrls.bw_total::.cpu.data        171463396                       # Total bandwidth to/from this memory (bytes/s)
system.mem_ctrls.bw_total::total            250276257                       # Total bandwidth to/from this memory (bytes/s)
system.mem_ctrls.avgPriority_.writebacks::samples     99282.00                       # Average QoS priority value for accepted requests
system.mem_ctrls.avgPriority_.cpu.inst::samples       834.00                       # Average QoS priority value for accepted requests
system.mem_ctrls.avgPriority_.cpu.data::samples    217793.00                       # Average QoS priority value for accepted requests
system.mem_ctrls.priorityMinLatency      0.000000018750                       # per QoS priority minimum request to response latency (s)
system.mem_ctrls.priorityMaxLatency      0.009203827500                       # per QoS priority maximum request to response latency (s)
system.mem_ctrls.numReadWriteTurnArounds         6062                       # Number of turnarounds from READ to WRITE
system.mem_ctrls.numWriteReadTurnArounds         6062                       # Number of turnarounds from WRITE to READ
system.mem_ctrls.numStayReadState              387155                       # Number of times bus staying in READ state
system.mem_ctrls.numStayWriteState              93319                       # Number of times bus staying in WRITE state
system.mem_ctrls.readReqs                      109322                       # Number of read requests accepted
system.mem_ctrls.writeReqs                      49641                       # Number of write requests accepted
system.mem_ctrls.readBursts                    218644                       # Number of DRAM read bursts, including those serviced by the write queue
system.mem_ctrls.writeBursts                    99282                       # Number of DRAM write bursts, including those merged in the write queue
system.mem_ctrls.servicedByWrQ                     17                       # Number of DRAM read bursts serviced by the write queue
system.mem_ctrls.mergedWrBursts                     0                       # Number of DRAM write bursts merged with an existing one
system.mem_ctrls.neitherReadNorWriteReqs            0                       # Number of requests that are neither read nor write
system.mem_ctrls.perBankRdBursts::0             13930                       # Per bank write bursts
system.mem_ctrls.perBankRdBursts::1             13866                       # Per bank write bursts
system.mem_ctrls.perBankRdBursts::2             13801                       # Per bank write bursts
system.mem_ctrls.perBankRdBursts::3             13538                       # Per bank write bursts
system.mem_ctrls.perBankRdBursts::4             13638                       # Per bank write bursts
system.mem_ctrls.perBankRdBursts::5             13622                       # Per bank write bursts
system.mem_ctrls.perBankRdBursts::6             13546                       # Per bank write bursts
system.mem_ctrls.perBankRdBursts::7             13708                       # Per bank write bursts
system.mem_ctrls.perBankRdBursts::8             13612                       # Per bank write bursts
system.mem_ctrls.perBankRdBursts::9             13586                       # Per bank write bursts
system.mem_ctrls.perBankRdBursts::10            13770                       # Per bank write bursts
system.mem_ctrls.perBankRdBursts::11            13732                       # Per bank write bursts
system.mem_ctrls.perBankRdBursts::12            13680                       # Per bank write bursts
system.mem_ctrls.perBankRdBursts::13            13480                       # Per bank write bursts
system.mem_ctrls.perBankRdBursts::14            13434                       # Per bank write bursts
system.mem_ctrls.perBankRdBursts::15            13684                       # Per bank write bursts
system.mem_ctrls.perBankWrBursts::0              6272                       # Per bank write bursts
system.mem_ctrls.perBankWrBursts::1              6278                       # Per bank write bursts
system.mem_ctrls.perBankWrBursts::2              6321                       # Per bank write bursts
system.mem_ctrls.perBankWrBursts::3              6300                       # Per bank write bursts
system.mem_ctrls.perBankWrBursts::4              6220                       # Per bank write bursts
system.mem_ctrls.perBankWrBursts::5              6196                       # Per bank write bursts
system.mem_ctrls.perBankWrBursts::6              6182                       # Per bank write bursts
system.mem_ctrls.perBankWrBursts::7              6272                       # Per bank write bursts
system.mem_ctrls.perBankWrBursts::8              6184                       # Per bank write bursts
system.mem_ctrls.perBankWrBursts::9              6144                       # Per bank write bursts
system.mem_ctrls.perBankWrBursts::10             6144                       # Per bank write bursts
system.mem_ctrls.perBankWrBursts::11             6152                       # Per bank write bursts
system.mem_ctrls.perBankWrBursts::12             6118                       # Per bank write bursts
system.mem_ctrls.perBankWrBursts::13             6146                       # Per bank write bursts
system.mem_ctrls.perBankWrBursts::14             6144                       # Per bank write bursts
system.mem_ctrls.perBankWrBursts::15             6188                       # Per bank write bursts
system.mem_ctrls.avgRdQLen                       2.06                       # Average read queue length when enqueuing
system.mem_ctrls.avgWrQLen                      25.36                       # Average write queue length when enqueuing
system.mem_ctrls.totQLat                   3796747000                       # Total ticks spent queuing
system.mem_ctrls.totBusLat                 1093135000                       # Total ticks spent in databus transfers
system.mem_ctrls.totMemAccLat              7896003250                       # Total ticks spent from burst creation until serviced by the DRAM
system.mem_ctrls.avgQLat                     17366.32                       # Average queueing delay per DRAM burst
system.mem_ctrls.avgBusLat                    5000.00                       # Average bus latency per DRAM burst
system.mem_ctrls.avgMemAccLat                36116.32                       # Average memory access latency per DRAM burst
system.mem_ctrls.numRdRetry                         0                       # Number of times read queue was full causing retry
system.mem_ctrls.numWrRetry                         0                       # Number of times write queue was full causing retry
system.mem_ctrls.readRowHits                   185493                       # Number of row buffer hits during reads
system.mem_ctrls.writeRowHits                   86314                       # Number of row buffer hits during writes
system.mem_ctrls.readRowHitRate                 84.84                       # Row buffer hit rate for reads
system.mem_ctrls.writeRowHitRate                86.94                       # Row buffer hit rate for writes
system.mem_ctrls.readPktSize::0                     0                       # Read request sizes (log2)
system.mem_ctrls.readPktSize::1                     0                       # Read request sizes (log2)
system.mem_ctrls.readPktSize::2                     0                       # Read request sizes (log2)
system.mem_ctrls.readPktSize::3                     0                       # Read request sizes (log2)
system.mem_ctrls.readPktSize::4                     0                       # Read request sizes (log2)
system.mem_ctrls.readPktSize::5                     0                       # Read request sizes (log2)
system.mem_ctrls.readPktSize::6                218644                       # Read request sizes (log2)
system.mem_ctrls.writePktSize::0                    0                       # Write request sizes (log2)
system.mem_ctrls.writePktSize::1                    0                       # Write request sizes (log2)
system.mem_ctrls.writePktSize::2                    0                       # Write request sizes (log2)
system.mem_ctrls.writePktSize::3                    0                       # Write request sizes (log2)
system.mem_ctrls.writePktSize::4                    0                       # Write request sizes (log2)
system.mem_ctrls.writePktSize::5                    0                       # Write request sizes (log2)
system.mem_ctrls.writePktSize::6                99282                       # Write request sizes (log2)
system.mem_ctrls.rdQLenPdf::0                   91782                       # What read queue length does an incoming req see
system.mem_ctrls.rdQLenPdf::1                   92029                       # What read queue length does an incoming req see
system.mem_ctrls.rdQLenPdf::2                   17526                       # What read queue length does an incoming req see
system.mem_ctrls.rdQLenPdf::3                   17279                       # What read queue length does an incoming req see
system.mem_ctrls.rdQLenPdf::4                       5                       # What read queue length does an incoming req see
system.mem_ctrls.rdQLenPdf::5                       4                       # What read queue length does an incoming req see
system.mem_ctrls.rdQLenPdf::6                       1                       # What read queue length does an incoming req see
system.mem_ctrls.rdQLenPdf::7                       1                       # What read queue length does an incoming req see
system.mem_ctrls.rdQLenPdf::8                       0                       # What read queue length does an incoming req see
system.mem_ctrls.rdQLenPdf::9                       0                       # What read queue length does an incoming req see
system.mem_ctrls.rdQLenPdf::10                      0                       # What read queue length does an incoming req see
system.mem_ctrls.rdQLenPdf::11                      0                       # What read queue length does an incoming req see
system.mem_ctrls.rdQLenPdf::12                      0                       # What read queue length does an incoming req see
system.mem_ctrls.rdQLenPdf::13                      0                       # What read queue length does an incoming req see
system.mem_ctrls.rdQLenPdf::14                      0                       # What read queue length does an incoming req see
system.mem_ctrls.rdQLenPdf::15                      0                       # What read queue length does an incoming req see
system.mem_ctrls.rdQLenPdf::16                      0                       # What read queue length does an incoming req see
system.mem_ctrls.rdQLenPdf::17                      0                       # What read queue length does an incoming req see
system.mem_ctrls.rdQLenPdf::18                      0                       # What read queue length does an incoming req see
system.mem_ctrls.rdQLenPdf::19                      0                       # What read queue length does an incoming req see
system.mem_ctrls.rdQLenPdf::20                      0                       # What read queue length does an incoming req see
system.mem_ctrls.rdQLenPdf::21                      0                       # What read queue length does an incoming req see
system.mem_ctrls.rdQLenPdf::22                      0                       # What read queue length does an incoming req see
system.mem_ctrls.rdQLenPdf::23                      0                       # What read queue length does an incoming req see
system.mem_ctrls.rdQLenPdf::24                      0                       # What read queue length does an incoming req see
system.mem_ctrls.rdQLenPdf::25                      0                       # What read queue length does an incoming req see
system.mem_ctrls.rdQLenPdf::26                      0                       # What read queue length does an incoming req see
system.mem_ctrls.rdQLenPdf::27                      0                       # What read queue length does an incoming req see
system.mem_ctrls.rdQLenPdf::28                      0                       # What read queue length does an incoming req see
system.mem_ctrls.rdQLenPdf::29                      0                       # What read queue length does an incoming req see
system.mem_ctrls.rdQLenPdf::30                      0                       # What read queue length does an incoming req see
system.mem_ctrls.rdQLenPdf::31                      0                       # What read queue length does an incoming req see
system.mem_ctrls.wrQLenPdf::0                       1                       # What write queue length does an incoming req see
system.mem_ctrls.wrQLenPdf::1                       1                       # What write queue length does an incoming req see
system.mem_ctrls.wrQLenPdf::2                       1                       # What write queue length does an incoming req see
system.mem_ctrls.wrQLenPdf::3                       1                       # What write queue length does an incoming req see
system.mem_ctrls.wrQLenPdf::4                       1                       # What write queue length does an incoming req see
system.mem_ctrls.wrQLenPdf::5                       1                       # What write queue length does an incoming req see
system.mem_ctrls.wrQLenPdf::6                       1                       # What write queue length does an incoming req see
system.mem_ctrls.wrQLenPdf::7                       1                       # What write queue length does an incoming req see
system.mem_ctrls.wrQLenPdf::8                       1                       # What write queue length does an incoming req see
system.mem_ctrls.wrQLenPdf::9                       1                       # What write queue length does an incoming req see
system.mem_ctrls.wrQLenPdf::10                      1                       # What write queue length does an incoming req see
system.mem_ctrls.wrQLenPdf::11                      1                       # What write queue length does an incoming req see
system.mem_ctrls.wrQLenPdf::12                      1                       # What write queue length does an incoming req see
system.mem_ctrls.wrQLenPdf::13                      1                       # What write queue length does an incoming req see
system.mem_ctrls.wrQLenPdf::14                      1                       # What write queue length does an incoming req see
system.mem_ctrls.wrQLenPdf::15                   1078                       # What write queue length does an incoming req see
system.mem_ctrls.wrQLenPdf::16                   1087                       # What write queue length does an incoming req see
system.mem_ctrls.wrQLenPdf::17                   2899                       # What write queue length does an incoming req see
system.mem_ctrls.wrQLenPdf::18                   3543                       # What write queue length does an incoming req see
system.mem_ctrls.wrQLenPdf::19                   5286                       # What write queue length does an incoming req see
system.mem_ctrls.wrQLenPdf::20                   6101                       # What write queue length does an incoming req see
system.mem_ctrls.wrQLenPdf::21                   6111                       # What write queue length does an incoming req see
system.mem_ctrls.wrQLenPdf::22                   6111                       # What write queue length does an incoming req see
system.mem_ctrls.wrQLenPdf::23                   6093                       # What write queue length does an incoming req see
system.mem_ctrls.wrQLenPdf::24                   6190                       # What write queue length does an incoming req see
system.mem_ctrls.wrQLenPdf::25                   7864                       # What write queue length does an incoming req see
system.mem_ctrls.wrQLenPdf::26                   8196                       # What write queue length does an incoming req see
system.mem_ctrls.wrQLenPdf::27                   6540                       # What write queue length does an incoming req see
system.mem_ctrls.wrQLenPdf::28                   6176                       # What write queue length does an incoming req see
system.mem_ctrls.wrQLenPdf::29                   6233                       # What write queue length does an incoming req see
system.mem_ctrls.wrQLenPdf::30                   6152                       # What write queue length does an incoming req see
system.mem_ctrls.wrQLenPdf::31                   6071                       # What write queue length does an incoming req see
system.mem_ctrls.wrQLenPdf::32                   6065                       # What write queue length does an incoming req see
system.mem_ctrls.wrQLenPdf::33                   1452                       # What write queue length does an incoming req see
system.mem_ctrls.wrQLenPdf::34                     12                       # What write queue length does an incoming req see
system.mem_ctrls.wrQLenPdf::35                      7                       # What write queue length does an incoming req see
system.mem_ctrls.wrQLenPdf::36                      0                       # What write queue length does an incoming req see
system.mem_ctrls.wrQLenPdf::37                      0                       # What write queue length does an incoming req see
system.mem_ctrls.wrQLenPdf::38                      0                       # What write queue length does an incoming req see
system.mem_ctrls.wrQLenPdf::39                      0                       # What write queue length does an incoming req see
system.mem_ctrls.wrQLenPdf::40                      0                       # What write queue length does an incoming req see
system.mem_ctrls.wrQLenPdf::41                      0                       # What write queue length does an incoming req see
system.mem_ctrls.wrQLenPdf::42                      0                       # What write queue length does an incoming req see
system.mem_ctrls.wrQLenPdf::43                      0                       # What write queue length does an incoming req see
system.mem_ctrls.wrQLenPdf::44                      0                       # What write queue length does an incoming req see
system.mem_ctrls.wrQLenPdf::45                      0                       # What write queue length does an incoming req see
system.mem_ctrls.wrQLenPdf::46                      0                       # What write queue length does an incoming req see
system.mem_ctrls.wrQLenPdf::47                      0                       # What write queue length does an incoming req see
system.mem_ctrls.wrQLenPdf::48                      0                       # What write queue length does an incoming req see
system.mem_ctrls.wrQLenPdf::49                      0                       # What write queue length does an incoming req see
system.mem_ctrls.wrQLenPdf::50                      0                       # What write queue length does an incoming req see
system.mem_ctrls.wrQLenPdf::51                      0                       # What write queue length does an incoming req see
system.mem_ctrls.wrQLenPdf::52                      0                       # What write queue length does an incoming req see
system.mem_ctrls.wrQLenPdf::53                      0                       # What write queue length does an incoming req see
system.mem_ctrls.wrQLenPdf::54                      0                       # What write queue length does an incoming req see
system.mem_ctrls.wrQLenPdf::55                      0                       # What write queue length does an incoming req see
system.mem_ctrls.wrQLenPdf::56                      0                       # What write queue length does an incoming req see
system.mem_ctrls.wrQLenPdf::57                      0                       # What write queue length does an incoming req see
system.mem_ctrls.wrQLenPdf::58                      0                       # What write queue length does an incoming req see
system.mem_ctrls.wrQLenPdf::59                      0                       # What write queue length does an incoming req see
system.mem_ctrls.wrQLenPdf::60                      0                       # What write queue length does an incoming req see
system.mem_ctrls.wrQLenPdf::61                      0                       # What write queue length does an incoming req see
system.mem_ctrls.wrQLenPdf::62                      0                       # What write queue length does an incoming req see
system.mem_ctrls.wrQLenPdf::63                      0                       # What write queue length does an incoming req see
system.mem_ctrls.bytesPerActivate::samples        46081                       # Bytes accessed per row activation
system.mem_ctrls.bytesPerActivate::mean    441.501530                       # Bytes accessed per row activation
system.mem_ctrls.bytesPerActivate::gmean   281.294265                       # Bytes accessed per row activation
system.mem_ctrls.bytesPerActivate::stdev   395.877636                       # Bytes accessed per row activation
system.mem_ctrls.bytesPerActivate::0-127         1084      2.35%      2.35% # Bytes accessed per row activation
system.mem_ctrls.bytesPerActivate::128-255        24288     52.71%     55.06% # Bytes accessed per row activation
system.mem_ctrls.bytesPerActivate::256-383         2194      4.76%     59.82% # Bytes accessed per row activation
system.mem_ctrls.bytesPerActivate::384-511         1292      2.80%     62.62% # Bytes accessed per row activation
system.mem_ctrls.bytesPerActivate::512-639         1126      2.44%     65.07% # Bytes accessed per row activation
system.mem_ctrls.bytesPerActivate::640-767         1903      4.13%     69.20% # Bytes accessed per row activation
system.mem_ctrls.bytesPerActivate::768-895          833      1.81%     71.01% # Bytes accessed per row activation
system.mem_ctrls.bytesPerActivate::896-1023          783      1.70%     72.70% # Bytes accessed per row activation
system.mem_ctrls.bytesPerActivate::1024-1151        12578     27.30%    100.00% # Bytes accessed per row activation
system.mem_ctrls.bytesPerActivate::total        46081                       # Bytes accessed per row activation
system.mem_ctrls.rdPerTurnAround::samples         6062                       # Reads before turning the bus around for writes
system.mem_ctrls.rdPerTurnAround::mean      36.064830                       # Reads before turning the bus around for writes
system.mem_ctrls.rdPerTurnAround::gmean     25.201873                       # Reads before turning the bus around for writes
system.mem_ctrls.rdPerTurnAround::stdev    119.277985                       # Reads before turning the bus around for writes
system.mem_ctrls.rdPerTurnAround::0-511          6060     99.97%     99.97% # Reads before turning the bus around for writes
system.mem_ctrls.rdPerTurnAround::512-1023            1      0.02%     99.98% # Reads before turning the bus around for writes
system.mem_ctrls.rdPerTurnAround::8704-9215            1      0.02%    100.00% # Reads before turning the bus around for writes
system.mem_ctrls.rdPerTurnAround::total          6062                       # Reads before turning the bus around for writes
system.mem_ctrls.wrPerTurnAround::samples         6062                       # Writes before turning the bus around for reads
system.mem_ctrls.wrPerTurnAround::mean      16.374299                       # Writes before turning the bus around for reads
system.mem_ctrls.wrPerTurnAround::gmean     16.355260                       # Writes before turning the bus around for reads
system.mem_ctrls.wrPerTurnAround::stdev      0.813769                       # Writes before turning the bus around for reads
system.mem_ctrls.wrPerTurnAround::16             4963     81.87%     81.87% # Writes before turning the bus around for reads
system.mem_ctrls.wrPerTurnAround::17                8      0.13%     82.00% # Writes before turning the bus around for reads
system.mem_ctrls.wrPerTurnAround::18             1052     17.35%     99.36% # Writes before turning the bus around for reads
[...]
system.cpu.icache.ReadReq_avg_miss_latency::total 71987.037037                       # average ReadReq miss latency
system.cpu.icache.ReadReq_mshr_misses::.cpu.inst          540                       # number of ReadReq MSHR misses
system.cpu.icache.ReadReq_mshr_misses::total          540                       # number of ReadReq MSHR misses
system.cpu.icache.ReadReq_mshr_miss_latency::.cpu.inst     38333000                       # number of ReadReq MSHR miss cycles
system.cpu.icache.ReadReq_mshr_miss_latency::total     38333000                       # number of ReadReq MSHR miss cycles
system.cpu.icache.ReadReq_mshr_miss_rate::.cpu.inst     0.000067                       # mshr miss rate for ReadReq accesses
system.cpu.icache.ReadReq_mshr_miss_rate::total     0.000067                       # mshr miss rate for ReadReq accesses
system.cpu.icache.ReadReq_avg_mshr_miss_latency::.cpu.inst 70987.037037                       # average ReadReq mshr miss latency
system.cpu.icache.ReadReq_avg_mshr_miss_latency::total 70987.037037                       # average ReadReq mshr miss latency
system.cpu.icache.tags.pwrStateResidencyTicks::UNDEFINED  81299218000                       # Cumulative time (in ticks) in various power states
system.cpu.icache.tags.tagsinuse           203.893328                       # Cycle average of tags in use
system.cpu.icache.tags.total_refs             8051105                       # Total number of references to valid blocks.
system.cpu.icache.tags.sampled_refs               540                       # Sample count of references to valid blocks.
system.cpu.icache.tags.avg_refs          14909.453704                       # Average number of references to valid blocks.
system.cpu.icache.tags.warmup_cycle             92500                       # Cycle when the warmup percentage was hit.
system.cpu.icache.tags.occ_blocks::.cpu.inst   203.893328                       # Average occupied blocks per requestor
system.cpu.icache.tags.occ_percent::.cpu.inst     0.796458                       # Average percentage of cache occupancy
system.cpu.icache.tags.occ_percent::total     0.796458                       # Average percentage of cache occupancy
system.cpu.icache.tags.occ_task_id_blocks::1024          238                       # Occupied blocks per task id
system.cpu.icache.tags.age_task_id_blocks_1024::3           52                       # Occupied blocks per task id
system.cpu.icache.tags.age_task_id_blocks_1024::4          186                       # Occupied blocks per task id
system.cpu.icache.tags.occ_task_id_percent::1024     0.929688                       # Percentage of cache occupancy per task id
system.cpu.icache.tags.tag_accesses          16102750                       # Number of tag accesses
system.cpu.icache.tags.data_accesses         16102750                       # Number of data accesses
system.cpu.dtb.walker.pwrStateResidencyTicks::UNDEFINED  81299218000                       # Cumulative time (in ticks) in various power states
system.cpu.dtb.stage2_mmu.stage2_tlb.walker.pwrStateResidencyTicks::UNDEFINED  81299218000                       # Cumulative time (in ticks) in various power states
system.cpu.dcache.pwrStateResidencyTicks::UNDEFINED  81299218000                       # Cumulative time (in ticks) in various power states
system.cpu.dcache.demand_hits::.cpu.data     51429833                       # number of demand (read+write) hits
system.cpu.dcache.demand_hits::total         51429833                       # number of demand (read+write) hits
system.cpu.dcache.overall_hits::.cpu.data     51430431                       # number of overall hits
system.cpu.dcache.overall_hits::total        51430431                       # number of overall hits
system.cpu.dcache.demand_misses::.cpu.data       627193                       # number of demand (read+write) misses
system.cpu.dcache.demand_misses::total         627193                       # number of demand (read+write) misses
system.cpu.dcache.overall_misses::.cpu.data       635014                       # number of overall misses
system.cpu.dcache.overall_misses::total        635014                       # number of overall misses
system.cpu.dcache.demand_miss_latency::.cpu.data  18539762500                       # number of demand (read+write) miss cycles
system.cpu.dcache.demand_miss_latency::total  18539762500                       # number of demand (read+write) miss cycles
system.cpu.dcache.overall_miss_latency::.cpu.data  18539762500                       # number of overall miss cycles
system.cpu.dcache.overall_miss_latency::total  18539762500                       # number of overall miss cycles
system.cpu.dcache.demand_accesses::.cpu.data     52057026                       # number of demand (read+write) accesses
system.cpu.dcache.demand_accesses::total     52057026                       # number of demand (read+write) accesses
system.cpu.dcache.overall_accesses::.cpu.data     52065445                       # number of overall (read+write) accesses
system.cpu.dcache.overall_accesses::total     52065445                       # number of overall (read+write) accesses
system.cpu.dcache.demand_miss_rate::.cpu.data     0.012048                       # miss rate for demand accesses
system.cpu.dcache.demand_miss_rate::total     0.012048                       # miss rate for demand accesses
system.cpu.dcache.overall_miss_rate::.cpu.data     0.012196                       # miss rate for overall accesses
system.cpu.dcache.overall_miss_rate::total     0.012196                       # miss rate for overall accesses
system.cpu.dcache.demand_avg_miss_latency::.cpu.data 29559.900222                       # average overall miss latency
system.cpu.dcache.demand_avg_miss_latency::total 29559.900222                       # average overall miss latency
system.cpu.dcache.overall_avg_miss_latency::.cpu.data 29195.832690                       # average overall miss latency
system.cpu.dcache.overall_avg_miss_latency::total 29195.832690                       # average overall miss latency
system.cpu.dcache.blocked_cycles::no_mshrs            0                       # number of cycles access was blocked
system.cpu.dcache.blocked_cycles::no_targets            0                       # number of cycles access was blocked
system.cpu.dcache.blocked::no_mshrs                 0                       # number of cycles access was blocked
system.cpu.dcache.blocked::no_targets               0                       # number of cycles access was blocked
system.cpu.dcache.avg_blocked_cycles::no_mshrs          nan                       # average number of cycles each access was blocked
system.cpu.dcache.avg_blocked_cycles::no_targets          nan                       # average number of cycles each access was blocked
system.cpu.dcache.writebacks::.writebacks       562979                       # number of writebacks
system.cpu.dcache.writebacks::total            562979                       # number of writebacks
system.cpu.dcache.demand_mshr_hits::.cpu.data        34961                       # number of demand (read+write) MSHR hits
system.cpu.dcache.demand_mshr_hits::total        34961                       # number of demand (read+write) MSHR hits
system.cpu.dcache.overall_mshr_hits::.cpu.data        34961                       # number of overall MSHR hits
system.cpu.dcache.overall_mshr_hits::total        34961                       # number of overall MSHR hits
system.cpu.dcache.demand_mshr_misses::.cpu.data       592232                       # number of demand (read+write) MSHR misses
system.cpu.dcache.demand_mshr_misses::total       592232                       # number of demand (read+write) MSHR misses
system.cpu.dcache.overall_mshr_misses::.cpu.data       596187                       # number of overall MSHR misses
system.cpu.dcache.overall_mshr_misses::total       596187                       # number of overall MSHR misses
system.cpu.dcache.demand_mshr_miss_latency::.cpu.data  15492675500                       # number of demand (read+write) MSHR miss cycles
system.cpu.dcache.demand_mshr_miss_latency::total  15492675500                       # number of demand (read+write) MSHR miss cycles
system.cpu.dcache.overall_mshr_miss_latency::.cpu.data  15820609000                       # number of overall MSHR miss cycles
system.cpu.dcache.overall_mshr_miss_latency::total  15820609000                       # number of overall MSHR miss cycles
system.cpu.dcache.demand_mshr_miss_rate::.cpu.data     0.011377                       # mshr miss rate for demand accesses
system.cpu.dcache.demand_mshr_miss_rate::total     0.011377                       # mshr miss rate for demand accesses
system.cpu.dcache.overall_mshr_miss_rate::.cpu.data     0.011451                       # mshr miss rate for overall accesses
system.cpu.dcache.overall_mshr_miss_rate::total     0.011451                       # mshr miss rate for overall accesses
system.cpu.dcache.demand_avg_mshr_miss_latency::.cpu.data 26159.808150                       # average overall mshr miss latency
system.cpu.dcache.demand_avg_mshr_miss_latency::total 26159.808150                       # average overall mshr miss latency
system.cpu.dcache.overall_avg_mshr_miss_latency::.cpu.data 26536.319980                       # average overall mshr miss latency
system.cpu.dcache.overall_avg_mshr_miss_latency::total 26536.319980                       # average overall mshr miss latency
system.cpu.dcache.replacements                 595674                       # number of replacements
system.cpu.dcache.ReadReq_hits::.cpu.data     40781345                       # number of ReadReq hits
system.cpu.dcache.ReadReq_hits::total        40781345                       # number of ReadReq hits
system.cpu.dcache.ReadReq_misses::.cpu.data       325589                       # number of ReadReq misses
system.cpu.dcache.ReadReq_misses::total        325589                       # number of ReadReq misses
system.cpu.dcache.ReadReq_miss_latency::.cpu.data   6305961000                       # number of ReadReq miss cycles
system.cpu.dcache.ReadReq_miss_latency::total   6305961000                       # number of ReadReq miss cycles
system.cpu.dcache.ReadReq_accesses::.cpu.data     41106934                       # number of ReadReq accesses(hits+misses)
system.cpu.dcache.ReadReq_accesses::total     41106934                       # number of ReadReq accesses(hits+misses)
system.cpu.dcache.ReadReq_miss_rate::.cpu.data     0.007921                       # miss rate for ReadReq accesses
system.cpu.dcache.ReadReq_miss_rate::total     0.007921                       # miss rate for ReadReq accesses
system.cpu.dcache.ReadReq_avg_miss_latency::.cpu.data 19367.856408                       # average ReadReq miss latency
system.cpu.dcache.ReadReq_avg_miss_latency::total 19367.856408                       # average ReadReq miss latency
system.cpu.dcache.ReadReq_mshr_hits::.cpu.data         2265                       # number of ReadReq MSHR hits
system.cpu.dcache.ReadReq_mshr_hits::total         2265                       # number of ReadReq MSHR hits
system.cpu.dcache.ReadReq_mshr_misses::.cpu.data       323324                       # number of ReadReq MSHR misses
system.cpu.dcache.ReadReq_mshr_misses::total       323324                       # number of ReadReq MSHR misses
system.cpu.dcache.ReadReq_mshr_miss_latency::.cpu.data   5829118500                       # number of ReadReq MSHR miss cycles
system.cpu.dcache.ReadReq_mshr_miss_latency::total   5829118500                       # number of ReadReq MSHR miss cycles
system.cpu.dcache.ReadReq_mshr_miss_rate::.cpu.data     0.007865                       # mshr miss rate for ReadReq accesses
system.cpu.dcache.ReadReq_mshr_miss_rate::total     0.007865                       # mshr miss rate for ReadReq accesses
system.cpu.dcache.ReadReq_avg_mshr_miss_latency::.cpu.data 18028.721963                       # average ReadReq mshr miss latency
system.cpu.dcache.ReadReq_avg_mshr_miss_latency::total 18028.721963                       # average ReadReq mshr miss latency
system.cpu.dcache.WriteReq_hits::.cpu.data     10648488                       # number of WriteReq hits
system.cpu.dcache.WriteReq_hits::total       10648488                       # number of WriteReq hits
system.cpu.dcache.WriteReq_misses::.cpu.data       301604                       # number of WriteReq misses
system.cpu.dcache.WriteReq_misses::total       301604                       # number of WriteReq misses
system.cpu.dcache.WriteReq_miss_latency::.cpu.data  12233801500                       # number of WriteReq miss cycles
system.cpu.dcache.WriteReq_miss_latency::total  12233801500                       # number of WriteReq miss cycles
system.cpu.dcache.WriteReq_accesses::.cpu.data     10950092                       # number of WriteReq accesses(hits+misses)
system.cpu.dcache.WriteReq_accesses::total     10950092                       # number of WriteReq accesses(hits+misses)
system.cpu.dcache.WriteReq_miss_rate::.cpu.data     0.027544                       # miss rate for WriteReq accesses
system.cpu.dcache.WriteReq_miss_rate::total     0.027544                       # miss rate for WriteReq accesses
system.cpu.dcache.WriteReq_avg_miss_latency::.cpu.data 40562.464357                       # average WriteReq miss latency
system.cpu.dcache.WriteReq_avg_miss_latency::total 40562.464357                       # average WriteReq miss latency
system.cpu.dcache.WriteReq_mshr_hits::.cpu.data        32696                       # number of WriteReq MSHR hits
system.cpu.dcache.WriteReq_mshr_hits::total        32696                       # number of WriteReq MSHR hits
system.cpu.dcache.WriteReq_mshr_misses::.cpu.data       268908                       # number of WriteReq MSHR misses
system.cpu.dcache.WriteReq_mshr_misses::total       268908                       # number of WriteReq MSHR misses
system.cpu.dcache.WriteReq_mshr_miss_latency::.cpu.data   9663557000                       # number of WriteReq MSHR miss cycles
system.cpu.dcache.WriteReq_mshr_miss_latency::total   9663557000                       # number of WriteReq MSHR miss cycles
system.cpu.dcache.WriteReq_mshr_miss_rate::.cpu.data     0.024558                       # mshr miss rate for WriteReq accesses
system.cpu.dcache.WriteReq_mshr_miss_rate::total     0.024558                       # mshr miss rate for WriteReq accesses
system.cpu.dcache.WriteReq_avg_mshr_miss_latency::.cpu.data 35936.294197                       # average WriteReq mshr miss latency
system.cpu.dcache.WriteReq_avg_mshr_miss_latency::total 35936.294197                       # average WriteReq mshr miss latency
system.cpu.dcache.SoftPFReq_hits::.cpu.data          598                       # number of SoftPFReq hits
system.cpu.dcache.SoftPFReq_hits::total           598                       # number of SoftPFReq hits
system.cpu.dcache.SoftPFReq_misses::.cpu.data         7821                       # number of SoftPFReq misses
system.cpu.dcache.SoftPFReq_misses::total         7821                       # number of SoftPFReq misses
system.cpu.dcache.SoftPFReq_accesses::.cpu.data         8419                       # number of SoftPFReq accesses(hits+misses)
system.cpu.dcache.SoftPFReq_accesses::total         8419                       # number of SoftPFReq accesses(hits+misses)
system.cpu.dcache.SoftPFReq_miss_rate::.cpu.data     0.928970                       # miss rate for SoftPFReq accesses
system.cpu.dcache.SoftPFReq_miss_rate::total     0.928970                       # miss rate for SoftPFReq accesses
system.cpu.dcache.SoftPFReq_mshr_misses::.cpu.data         3955                       # number of SoftPFReq MSHR misses
system.cpu.dcache.SoftPFReq_mshr_misses::total         3955                       # number of SoftPFReq MSHR misses
system.cpu.dcache.SoftPFReq_mshr_miss_latency::.cpu.data    327933500                       # number of SoftPFReq MSHR miss cycles
system.cpu.dcache.SoftPFReq_mshr_miss_latency::total    327933500                       # number of SoftPFReq MSHR miss cycles
system.cpu.dcache.SoftPFReq_mshr_miss_rate::.cpu.data     0.469771                       # mshr miss rate for SoftPFReq accesses
system.cpu.dcache.SoftPFReq_mshr_miss_rate::total     0.469771                       # mshr miss rate for SoftPFReq accesses
system.cpu.dcache.SoftPFReq_avg_mshr_miss_latency::.cpu.data 82916.182048                       # average SoftPFReq mshr miss latency
system.cpu.dcache.SoftPFReq_avg_mshr_miss_latency::total 82916.182048                       # average SoftPFReq mshr miss latency
system.cpu.dcache.LoadLockedReq_hits::.cpu.data           38                       # number of LoadLockedReq hits
system.cpu.dcache.LoadLockedReq_hits::total           38                       # number of LoadLockedReq hits
system.cpu.dcache.LoadLockedReq_accesses::.cpu.data           38                       # number of LoadLockedReq accesses(hits+misses)
system.cpu.dcache.LoadLockedReq_accesses::total           38                       # number of LoadLockedReq accesses(hits+misses)
system.cpu.dcache.StoreCondReq_hits::.cpu.data           38                       # number of StoreCondReq hits
system.cpu.dcache.StoreCondReq_hits::total           38                       # number of StoreCondReq hits
system.cpu.dcache.StoreCondReq_accesses::.cpu.data           38                       # number of StoreCondReq accesses(hits+misses)
system.cpu.dcache.StoreCondReq_accesses::total           38                       # number of StoreCondReq accesses(hits+misses)
system.cpu.dcache.tags.pwrStateResidencyTicks::UNDEFINED  81299218000                       # Cumulative time (in ticks) in various power states
system.cpu.dcache.tags.tagsinuse           504.239123                       # Cycle average of tags in use
system.cpu.dcache.tags.total_refs            52026693                       # Total number of references to valid blocks.
system.cpu.dcache.tags.sampled_refs            596186                       # Sample count of references to valid blocks.
system.cpu.dcache.tags.avg_refs             87.265875                       # Average number of references to valid blocks.
system.cpu.dcache.tags.warmup_cycle            186500                       # Cycle when the warmup percentage was hit.
system.cpu.dcache.tags.occ_blocks::.cpu.data   504.239123                       # Average occupied blocks per requestor
system.cpu.dcache.tags.occ_percent::.cpu.data     0.984842                       # Average percentage of cache occupancy
system.cpu.dcache.tags.occ_percent::total     0.984842                       # Average percentage of cache occupancy
system.cpu.dcache.tags.occ_task_id_blocks::1024          512                       # Occupied blocks per task id
system.cpu.dcache.tags.age_task_id_blocks_1024::0          246                       # Occupied blocks per task id
system.cpu.dcache.tags.age_task_id_blocks_1024::1          250                       # Occupied blocks per task id
system.cpu.dcache.tags.age_task_id_blocks_1024::2           15                       # Occupied blocks per task id
system.cpu.dcache.tags.age_task_id_blocks_1024::4            1                       # Occupied blocks per task id
system.cpu.dcache.tags.occ_task_id_percent::1024            1                       # Percentage of cache occupancy per task id
system.cpu.dcache.tags.tag_accesses         417120354                       # Number of tag accesses
system.cpu.dcache.tags.data_accesses        417120354                       # Number of data accesses
system.cpu.itb.walker.pwrStateResidencyTicks::UNDEFINED  81299218000                       # Cumulative time (in ticks) in various power states
system.cpu.itb.stage2_mmu.stage2_tlb.walker.pwrStateResidencyTicks::UNDEFINED  81299218000                       # Cumulative time (in ticks) in various power states

---------- End Simulation Statistics   ----------
