
---------- Begin Simulation Statistics ----------
final_tick                                83998984500                       # Number of ticks from beginning of simulation (restored from checkpoints and never reset)
host_inst_rate                                 300172                       # Simulator instruction rate (inst/s)
host_mem_usage                                 691760                       # Number of bytes of host memory used
host_op_rate                                   300761                       # Simulator op (including micro ops) rate (op/s)
host_seconds                                   333.14                       # Real time elapsed on the host
host_tick_rate                              252141302                       # Simulator tick rate (ticks/s)
sim_freq                                 1000000000000                       # Frequency of simulated ticks
sim_insts                                   100000000                       # Number of instructions simulated
sim_ops                                     100196369                       # Number of ops (including micro ops) simulated
sim_seconds                                  0.083999                       # Number of seconds simulated
sim_ticks                                 83998984500                       # Number of ticks simulated
system.cpu.branchPred.BTBCorrect                    0                       # Number of correct BTB predictions (this stat may not work properly.
system.cpu.branchPred.BTBHitPct             99.695640                       # BTB Hit Percentage
system.cpu.branchPred.BTBHits                 2095388                       # Number of BTB hits
system.cpu.branchPred.BTBLookups              2101785                       # Number of BTB lookups
system.cpu.branchPred.RASInCorrect                  6                       # Number of incorrect RAS predictions.
system.cpu.branchPred.condIncorrect             81343                       # Number of conditional branches incorrect
system.cpu.branchPred.condPredicted           3727671                       # Number of conditional branches predicted
system.cpu.branchPred.indirectHits                291                       # Number of indirect target hits.
system.cpu.branchPred.indirectLookups             809                       # Number of indirect predictor lookups.
system.cpu.branchPred.indirectMisses              518                       # Number of indirect misses.
system.cpu.branchPred.lookups                 4477747                       # Number of BP lookups
system.cpu.branchPred.usedRAS                   65334                       # Number of times the RAS was used to get a target.
system.cpu.branchPredindirectMispredicted          171                       # Number of mispredicted indirect branches.
system.cpu.committedInsts                   100000000                       # Number of instructions committed
system.cpu.committedOps                     100196369                       # Number of ops (including micro ops) committed
system.cpu.cpi                               1.679980                       # CPI: cycles per instruction
system.cpu.discardedOps                        190650                       # Number of ops (including micro ops) which were discarded before commit
system.cpu.dtb.accesses                             0                       # DTB accesses
system.cpu.dtb.align_faults                         0                       # Number of TLB faults due to alignment restrictions
system.cpu.dtb.domain_faults                        0                       # Number of TLB faults due to domain restrictions
system.cpu.dtb.flush_entries                        0                       # Number of entries that have been flushed from TLB
system.cpu.dtb.flush_tlb                            0                       # Number of times complete TLB was flushed
system.cpu.dtb.flush_tlb_asid                       0                       # Number of times TLB was flushed by ASID
system.cpu.dtb.flush_tlb_mva                        0                       # Number of times TLB was flushed by MVA
system.cpu.dtb.flush_tlb_mva_asid                   0                       # Number of times TLB was flushed by MVA & ASID
system.cpu.dtb.hits                                 0                       # DTB hits
system.cpu.dtb.inst_accesses                        0                       # ITB inst accesses
system.cpu.dtb.inst_hits                            0                       # ITB inst hits
system.cpu.dtb.inst_misses                          0                       # ITB inst misses
system.cpu.dtb.misses                               0                       # DTB misses
system.cpu.dtb.perms_faults                         0                       # Number of TLB faults due to permissions restrictions
system.cpu.dtb.prefetch_faults                      0                       # Number of TLB faults due to prefetch
system.cpu.dtb.read_accesses                        0                       # DTB read accesses
system.cpu.dtb.read_hits                            0                       # DTB read hits
system.cpu.dtb.read_misses                          0                       # DTB read misses
system.cpu.dtb.stage2_mmu.stage2_tlb.accesses            0                       # DTB accesses
system.cpu.dtb.stage2_mmu.stage2_tlb.align_faults            0                       # Number of TLB faults due to alignment restrictions
system.cpu.dtb.stage2_mmu.stage2_tlb.domain_faults            0                       # Number of TLB faults due to domain restrictions
system.cpu.dtb.stage2_mmu.stage2_tlb.flush_entries            0                       # Number of entries that have been flushed from TLB
system.cpu.dtb.stage2_mmu.stage2_tlb.flush_tlb            0                       # Number of times complete TLB was flushed
system.cpu.dtb.stage2_mmu.stage2_tlb.flush_tlb_asid            0                       # Number of times TLB was flushed by ASID
system.cpu.dtb.stage2_mmu.stage2_tlb.flush_tlb_mva            0                       # Number of times TLB was flushed by MVA
system.cpu.dtb.stage2_mmu.stage2_tlb.flush_tlb_mva_asid            0                       # Number of times TLB was flushed by MVA & ASID
system.cpu.dtb.stage2_mmu.stage2_tlb.hits            0                       # DTB hits
system.cpu.dtb.stage2_mmu.stage2_tlb.inst_accesses            0                       # ITB inst accesses
system.cpu.dtb.stage2_mmu.stage2_tlb.inst_hits            0                       # ITB inst hits
system.cpu.dtb.stage2_mmu.stage2_tlb.inst_misses            0                       # ITB inst misses
system.cpu.dtb.stage2_mmu.stage2_tlb.misses            0                       # DTB misses
system.cpu.dtb.stage2_mmu.stage2_tlb.perms_faults            0                       # Number of TLB faults due to permissions restrictions
system.cpu.dtb.stage2_mmu.stage2_tlb.prefetch_faults            0                       # Number of TLB faults due to prefetch
system.cpu.dtb.stage2_mmu.stage2_tlb.read_accesses            0                       # DTB read accesses
system.cpu.dtb.stage2_mmu.stage2_tlb.read_hits            0                       # DTB read hits
system.cpu.dtb.stage2_mmu.stage2_tlb.read_misses            0                       # DTB read misses
system.cpu.dtb.stage2_mmu.stage2_tlb.walker.walkRequestOrigin_Requested::Data            0                       # Table walker requests started/completed, data/inst
system.cpu.dtb.stage2_mmu.stage2_tlb.walker.walkRequestOrigin_Requested::Inst            0                       # Table walker requests started/completed, data/inst
system.cpu.dtb.stage2_mmu.stage2_tlb.walker.walkRequestOrigin_Requested::total            0                       # Table walker requests started/completed, data/inst
system.cpu.dtb.stage2_mmu.stage2_tlb.walker.walkRequestOrigin_Completed::Data            0                       # Table walker requests started/completed, data/inst
system.cpu.dtb.stage2_mmu.stage2_tlb.walker.walkRequestOrigin_Completed::Inst            0                       # Table walker requests started/completed, data/inst
system.cpu.dtb.stage2_mmu.stage2_tlb.walker.walkRequestOrigin_Completed::total            0                       # Table walker requests started/completed, data/inst
system.cpu.dtb.stage2_mmu.stage2_tlb.walker.walkRequestOrigin::total            0                       # Table walker requests started/completed, data/inst
system.cpu.dtb.stage2_mmu.stage2_tlb.walker.walks            0                       # Table walker walks requested
system.cpu.dtb.stage2_mmu.stage2_tlb.write_accesses            0                       # DTB write accesses
system.cpu.dtb.stage2_mmu.stage2_tlb.write_hits            0                       # DTB write hits
system.cpu.dtb.stage2_mmu.stage2_tlb.write_misses            0                       # DTB write misses
system.cpu.dtb.walker.walkRequestOrigin_Requested::Data            0                       # Table walker requests started/completed, data/inst
system.cpu.dtb.walker.walkRequestOrigin_Requested::Inst            0                       # Table walker requests started/completed, data/inst
system.cpu.dtb.walker.walkRequestOrigin_Requested::total            0                       # Table walker requests started/completed, data/inst
system.cpu.dtb.walker.walkRequestOrigin_Completed::Data            0                       # Table walker requests started/completed, data/inst
system.cpu.dtb.walker.walkRequestOrigin_Completed::Inst            0                       # Table walker requests started/completed, data/inst
system.cpu.dtb.walker.walkRequestOrigin_Completed::total            0                       # Table walker requests started/completed, data/inst
system.cpu.dtb.walker.walkRequestOrigin::total            0                       # Table walker requests started/completed, data/inst
system.cpu.dtb.walker.walks                         0                       # Table walker walks requested
system.cpu.dtb.write_accesses                       0                       # DTB write accesses
system.cpu.dtb.write_hits                           0                       # DTB write hits
system.cpu.dtb.write_misses                         0                       # DTB write misses
system.cpu.fetch2.amo_instructions                  0                       # Number of memory atomic instructions successfully decoded
system.cpu.fetch2.fp_instructions                   0                       # Number of floating point instructions successfully decoded
system.cpu.fetch2.int_instructions           42610100                       # Number of integer instructions successfully decoded
system.cpu.fetch2.load_instructions          43402244                       # Number of memory load instructions successfully decoded
system.cpu.fetch2.store_instructions         11001385                       # Number of memory store instructions successfully decoded
system.cpu.fetch2.vec_instructions                  0                       # Number of SIMD instructions successfully decoded
system.cpu.idleCycles                        35299125                       # Total number of cycles that the object has spent stopped
system.cpu.ipc                               0.595245                       # IPC: instructions per cycle
system.cpu.itb.accesses                             0                       # DTB accesses
system.cpu.itb.align_faults                         0                       # Number of TLB faults due to alignment restrictions
system.cpu.itb.domain_faults                        0                       # Number of TLB faults due to domain restrictions
system.cpu.itb.flush_entries                        0                       # Number of entries that have been flushed from TLB
system.cpu.itb.flush_tlb                            0                       # Number of times complete TLB was flushed
system.cpu.itb.flush_tlb_asid                       0                       # Number of times TLB was flushed by ASID
system.cpu.itb.flush_tlb_mva                        0                       # Number of times TLB was flushed by MVA
system.cpu.itb.flush_tlb_mva_asid                   0                       # Number of times TLB was flushed by MVA & ASID
system.cpu.itb.hits                                 0                       # DTB hits
system.cpu.itb.inst_accesses                        0                       # ITB inst accesses
system.cpu.itb.inst_hits                            0                       # ITB inst hits
system.cpu.itb.inst_misses                          0                       # ITB inst misses
system.cpu.itb.misses                               0                       # DTB misses
system.cpu.itb.perms_faults                         0                       # Number of TLB faults due to permissions restrictions
system.cpu.itb.prefetch_faults                      0                       # Number of TLB faults due to prefetch
system.cpu.itb.read_accesses                        0                       # DTB read accesses
system.cpu.itb.read_hits                            0                       # DTB read hits
system.cpu.itb.read_misses                          0                       # DTB read misses
system.cpu.itb.stage2_mmu.stage2_tlb.accesses            0                       # DTB accesses
system.cpu.itb.stage2_mmu.stage2_tlb.align_faults            0                       # Number of TLB faults due to alignment restrictions
system.cpu.itb.stage2_mmu.stage2_tlb.domain_faults            0                       # Number of TLB faults due to domain restrictions
system.cpu.itb.stage2_mmu.stage2_tlb.flush_entries            0                       # Number of entries that have been flushed from TLB
system.cpu.itb.stage2_mmu.stage2_tlb.flush_tlb            0                       # Number of times complete TLB was flushed
system.cpu.itb.stage2_mmu.stage2_tlb.flush_tlb_asid            0                       # Number of times TLB was flushed by ASID
system.cpu.itb.stage2_mmu.stage2_tlb.flush_tlb_mva            0                       # Number of times TLB was flushed by MVA
system.cpu.itb.stage2_mmu.stage2_tlb.flush_tlb_mva_asid            0                       # Number of times TLB was flushed by MVA & ASID
system.cpu.itb.stage2_mmu.stage2_tlb.hits            0                       # DTB hits
system.cpu.itb.stage2_mmu.stage2_tlb.inst_accesses            0                       # ITB inst accesses
system.cpu.itb.stage2_mmu.stage2_tlb.inst_hits            0                       # ITB inst hits
system.cpu.itb.stage2_mmu.stage2_tlb.inst_misses            0                       # ITB inst misses
system.cpu.itb.stage2_mmu.stage2_tlb.misses            0                       # DTB misses
system.cpu.itb.stage2_mmu.stage2_tlb.perms_faults            0                       # Number of TLB faults due to permissions restrictions
system.cpu.itb.stage2_mmu.stage2_tlb.prefetch_faults            0                       # Number of TLB faults due to prefetch
system.cpu.itb.stage2_mmu.stage2_tlb.read_accesses            0                       # DTB read accesses
system.cpu.itb.stage2_mmu.stage2_tlb.read_hits            0                       # DTB read hits
system.cpu.itb.stage2_mmu.stage2_tlb.read_misses            0                       # DTB read misses
system.cpu.itb.stage2_mmu.stage2_tlb.walker.walkRequestOrigin_Requested::Data            0                       # Table walker requests started/completed, data/inst
system.cpu.itb.stage2_mmu.stage2_tlb.walker.walkRequestOrigin_Requested::Inst            0                       # Table walker requests started/completed, data/inst
system.cpu.itb.stage2_mmu.stage2_tlb.walker.walkRequestOrigin_Requested::total            0                       # Table walker requests started/completed, data/inst
system.cpu.itb.stage2_mmu.stage2_tlb.walker.walkRequestOrigin_Completed::Data            0                       # Table walker requests started/completed, data/inst
system.cpu.itb.stage2_mmu.stage2_tlb.walker.walkRequestOrigin_Completed::Inst            0                       # Table walker requests started/completed, data/inst
system.cpu.itb.stage2_mmu.stage2_tlb.walker.walkRequestOrigin_Completed::total            0                       # Table walker requests started/completed, data/inst
system.cpu.itb.stage2_mmu.stage2_tlb.walker.walkRequestOrigin::total            0                       # Table walker requests started/completed, data/inst
system.cpu.itb.stage2_mmu.stage2_tlb.walker.walks            0                       # Table walker walks requested
system.cpu.itb.stage2_mmu.stage2_tlb.write_accesses            0                       # DTB write accesses
system.cpu.itb.stage2_mmu.stage2_tlb.write_hits            0                       # DTB write hits
system.cpu.itb.stage2_mmu.stage2_tlb.write_misses            0                       # DTB write misses
system.cpu.itb.walker.walkRequestOrigin_Requested::Data            0                       # Table walker requests started/completed, data/inst
system.cpu.itb.walker.walkRequestOrigin_Requested::Inst            0                       # Table walker requests started/completed, data/inst
system.cpu.itb.walker.walkRequestOrigin_Requested::total            0                       # Table walker requests started/completed, data/inst
system.cpu.itb.walker.walkRequestOrigin_Completed::Data            0                       # Table walker requests started/completed, data/inst
system.cpu.itb.walker.walkRequestOrigin_Completed::Inst            0                       # Table walker requests started/completed, data/inst
system.cpu.itb.walker.walkRequestOrigin_Completed::total            0                       # Table walker requests started/completed, data/inst
system.cpu.itb.walker.walkRequestOrigin::total            0                       # Table walker requests started/completed, data/inst
system.cpu.itb.walker.walks                         0                       # Table walker walks requested
system.cpu.itb.write_accesses                       0                       # DTB write accesses
system.cpu.itb.write_hits                           0                       # DTB write hits
system.cpu.itb.write_misses                         0                       # DTB write misses
system.cpu.numCycles                        167997969                       # number of cpu cycles simulated
system.cpu.numFetchSuspends                         0                       # Number of times Execute suspended instruction fetching
system.cpu.numWorkItemsCompleted                    0                       # number of work items this cpu completed
system.cpu.numWorkItemsStarted                      0                       # number of work items this cpu started
system.cpu.op_class_0::No_OpClass                   0      0.00%      0.00% # Class of committed instruction
system.cpu.op_class_0::IntAlu                46531437     46.44%     46.44% # Class of committed instruction
system.cpu.op_class_0::IntMult                  20720      0.02%     46.46% # Class of committed instruction
system.cpu.op_class_0::IntDiv                       0      0.00%     46.46% # Class of committed instruction
system.cpu.op_class_0::FloatAdd                     0      0.00%     46.46% # Class of committed instruction
system.cpu.op_class_0::FloatCmp                     0      0.00%     46.46% # Class of committed instruction
system.cpu.op_class_0::FloatCvt                     0      0.00%     46.46% # Class of committed instruction
system.cpu.op_class_0::FloatMult                    0      0.00%     46.46% # Class of committed instruction
system.cpu.op_class_0::FloatMultAcc                 0      0.00%     46.46% # Class of committed instruction
system.cpu.op_class_0::FloatDiv                     0      0.00%     46.46% # Class of committed instruction
system.cpu.op_class_0::FloatMisc                    0      0.00%     46.46% # Class of committed instruction
system.cpu.op_class_0::FloatSqrt                    0      0.00%     46.46% # Class of committed instruction
system.cpu.op_class_0::SimdAdd                      0      0.00%     46.46% # Class of committed instruction
system.cpu.op_class_0::SimdAddAcc                   0      0.00%     46.46% # Class of committed instruction
system.cpu.op_class_0::SimdAlu                      0      0.00%     46.46% # Class of committed instruction
system.cpu.op_class_0::SimdCmp                      0      0.00%     46.46% # Class of committed instruction
system.cpu.op_class_0::SimdCvt                      0      0.00%     46.46% # Class of committed instruction
system.cpu.op_class_0::SimdMisc                     0      0.00%     46.46% # Class of committed instruction
system.cpu.op_class_0::SimdMult                     0      0.00%     46.46% # Class of committed instruction
system.cpu.op_class_0::SimdMultAcc                  0      0.00%     46.46% # Class of committed instruction
system.cpu.op_class_0::SimdShift                    0      0.00%     46.46% # Class of committed instruction
system.cpu.op_class_0::SimdShiftAcc                 0      0.00%     46.46% # Class of committed instruction
system.cpu.op_class_0::SimdDiv                      0      0.00%     46.46% # Class of committed instruction
system.cpu.op_class_0::SimdSqrt                     0      0.00%     46.46% # Class of committed instruction
system.cpu.op_class_0::SimdFloatAdd                 0      0.00%     46.46% # Class of committed instruction
system.cpu.op_class_0::SimdFloatAlu                 0      0.00%     46.46% # Class of committed instruction
system.cpu.op_class_0::SimdFloatCmp                 0      0.00%     46.46% # Class of committed instruction
system.cpu.op_class_0::SimdFloatCvt                 0      0.00%     46.46% # Class of committed instruction
system.cpu.op_class_0::SimdFloatDiv                 0      0.00%     46.46% # Class of committed instruction
system.cpu.op_class_0::SimdFloatMisc               18      0.00%     46.46% # Class of committed instruction
system.cpu.op_class_0::SimdFloatMult                0      0.00%     46.46% # Class of committed instruction
system.cpu.op_class_0::SimdFloatMultAcc             0      0.00%     46.46% # Class of committed instruction
system.cpu.op_class_0::SimdFloatSqrt                0      0.00%     46.46% # Class of committed instruction
system.cpu.op_class_0::SimdReduceAdd                0      0.00%     46.46% # Class of committed instruction
system.cpu.op_class_0::SimdReduceAlu                0      0.00%     46.46% # Class of committed instruction
system.cpu.op_class_0::SimdReduceCmp                0      0.00%     46.46% # Class of committed instruction
system.cpu.op_class_0::SimdFloatReduceAdd            0      0.00%     46.46% # Class of committed instruction
system.cpu.op_class_0::SimdFloatReduceCmp            0      0.00%     46.46% # Class of committed instruction
system.cpu.op_class_0::SimdAes                      0      0.00%     46.46% # Class of committed instruction
system.cpu.op_class_0::SimdAesMix                   0      0.00%     46.46% # Class of committed instruction
system.cpu.op_class_0::SimdSha1Hash                 0      0.00%     46.46% # Class of committed instruction
system.cpu.op_class_0::SimdSha1Hash2                0      0.00%     46.46% # Class of committed instruction
system.cpu.op_class_0::SimdSha256Hash               0      0.00%     46.46% # Class of committed instruction
system.cpu.op_class_0::SimdSha256Hash2              0      0.00%     46.46% # Class of committed instruction
system.cpu.op_class_0::SimdShaSigma2                0      0.00%     46.46% # Class of committed instruction
system.cpu.op_class_0::SimdShaSigma3                0      0.00%     46.46% # Class of committed instruction
system.cpu.op_class_0::SimdPredAlu                  0      0.00%     46.46% # Class of committed instruction
system.cpu.op_class_0::MemRead               42693580     42.61%     89.07% # Class of committed instruction
system.cpu.op_class_0::MemWrite              10950614     10.93%    100.00% # Class of committed instruction
system.cpu.op_class_0::FloatMemRead                 0      0.00%    100.00% # Class of committed instruction
system.cpu.op_class_0::FloatMemWrite                0      0.00%    100.00% # Class of committed instruction
system.cpu.op_class_0::IprAccess                    0      0.00%    100.00% # Class of committed instruction
system.cpu.op_class_0::InstPrefetch                 0      0.00%    100.00% # Class of committed instruction
system.cpu.op_class_0::total                100196369                       # Class of committed instruction
system.cpu.tickCycles                       132698844                       # Number of cycles that the object actually ticked
system.cpu.workload.numSyscalls                    84                       # Number of system calls
system.membus.snoop_filter.hit_multi_requests            0                       # Number of requests hitting in the snoop filter with multiple (>1) holders of the requested data.
system.membus.snoop_filter.hit_multi_snoops            0                       # Number of snoops hitting in the snoop filter with multiple (>1) holders of the requested data.
system.membus.snoop_filter.hit_single_requests       167799                       # Number of requests hitting in the snoop filter with a single holder of the requested data.
system.membus.snoop_filter.hit_single_snoops            0                       # Number of snoops hitting in the snoop filter with a single holder of the requested data.
system.membus.snoop_filter.tot_requests        368769                       # Total number of requests made to the snoop filter.
system.membus.snoop_filter.tot_snoops               0                       # Total number of snoops made to the snoop filter.
system.tol2bus.snoop_filter.hit_multi_requests          120                       # Number of requests hitting in the snoop filter with multiple (>1) holders of the requested data.
system.tol2bus.snoop_filter.hit_multi_snoops            0                       # Number of snoops hitting in the snoop filter with multiple (>1) holders of the requested data.
system.tol2bus.snoop_filter.hit_single_requests       710936                       # Number of requests hitting in the snoop filter with a single holder of the requested data.
system.tol2bus.snoop_filter.hit_single_snoops          495                       # Number of snoops hitting in the snoop filter with a single holder of the requested data.
system.tol2bus.snoop_filter.tot_requests      1423406                       # Total number of requests made to the snoop filter.
system.tol2bus.snoop_filter.tot_snoops            495                       # Total number of snoops made to the snoop filter.
system.membus.pwrStateResidencyTicks::UNDEFINED  83998984500                       # Cumulative time (in ticks) in various power states
system.membus.trans_dist::ReadResp              64862                       # Transaction distribution
system.membus.trans_dist::WritebackDirty       111081                       # Transaction distribution
system.membus.trans_dist::CleanEvict            56711                       # Transaction distribution
system.membus.trans_dist::ReadExReq            136115                       # Transaction distribution
system.membus.trans_dist::ReadExResp           136114                       # Transaction distribution
system.membus.trans_dist::ReadSharedReq         64862                       # Transaction distribution
system.membus.pkt_count_system.l2.mem_side::system.mem_ctrls.port       569745                       # Packet count per connected master and slave (bytes)
system.membus.pkt_count::total                 569745                       # Packet count per connected master and slave (bytes)
system.membus.pkt_size_system.l2.mem_side::system.mem_ctrls.port     19971648                       # Cumulative packet size per connected master and slave (bytes)
system.membus.pkt_size::total                19971648                       # Cumulative packet size per connected master and slave (bytes)
system.membus.snoops                                0                       # Total snoops (count)
system.membus.snoopTraffic                          0                       # Total snoop traffic (bytes)
system.membus.snoop_fanout::samples            200977                       # Request fanout histogram
system.membus.snoop_fanout::mean                    0                       # Request fanout histogram
system.membus.snoop_fanout::stdev                   0                       # Request fanout histogram
system.membus.snoop_fanout::underflows              0      0.00%      0.00% # Request fanout histogram
system.membus.snoop_fanout::0                  200977    100.00%    100.00% # Request fanout histogram
system.membus.snoop_fanout::1                       0      0.00%    100.00% # Request fanout histogram
system.membus.snoop_fanout::overflows               0      0.00%    100.00% # Request fanout histogram
system.membus.snoop_fanout::min_value               0                       # Request fanout histogram
system.membus.snoop_fanout::max_value               0                       # Request fanout histogram
system.membus.snoop_fanout::total              200977                       # Request fanout histogram
system.membus.respLayer1.occupancy         1082452500                       # Layer occupancy (ticks)
system.membus.respLayer1.utilization              1.3                       # Layer utilization (%)
system.membus.reqLayer0.occupancy           854504500                       # Layer occupancy (ticks)
system.membus.reqLayer0.utilization               1.0                       # Layer utilization (%)
system.tol2bus.pwrStateResidencyTicks::UNDEFINED  83998984500                       # Cumulative time (in ticks) in various power states
system.tol2bus.trans_dist::ReadResp            426091                       # Transaction distribution
system.tol2bus.trans_dist::WritebackDirty       746765                       # Transaction distribution
system.tol2bus.trans_dist::WritebackClean          245                       # Transaction distribution
system.tol2bus.trans_dist::CleanEvict          132211                       # Transaction distribution
system.tol2bus.trans_dist::ReadExReq           286381                       # Transaction distribution
system.tol2bus.trans_dist::ReadExResp          286380                       # Transaction distribution
system.tol2bus.trans_dist::ReadCleanReq           758                       # Transaction distribution
system.tol2bus.trans_dist::ReadSharedReq       425333                       # Transaction distribution
system.tol2bus.pkt_count_system.cpu.icache.mem_side::system.l2.cpu_side         1761                       # Packet count per connected master and slave (bytes)
system.tol2bus.pkt_count_system.cpu.dcache.mem_side::system.l2.cpu_side      2134116                       # Packet count per connected master and slave (bytes)
system.tol2bus.pkt_count::total               2135877                       # Packet count per connected master and slave (bytes)
system.tol2bus.pkt_size_system.cpu.icache.mem_side::system.l2.cpu_side        64192                       # Cumulative packet size per connected master and slave (bytes)
system.tol2bus.pkt_size_system.cpu.dcache.mem_side::system.l2.cpu_side     86233408                       # Cumulative packet size per connected master and slave (bytes)
system.tol2bus.pkt_size::total               86297600                       # Cumulative packet size per connected master and slave (bytes)
system.tol2bus.snoops                          168287                       # Total snoops (count)
system.tol2bus.snoopTraffic                   7109184                       # Total snoop traffic (bytes)
system.tol2bus.snoop_fanout::samples           880759                       # Request fanout histogram
system.tol2bus.snoop_fanout::mean            0.000701                       # Request fanout histogram
system.tol2bus.snoop_fanout::stdev           0.026458                       # Request fanout histogram
system.tol2bus.snoop_fanout::underflows             0      0.00%      0.00% # Request fanout histogram
system.tol2bus.snoop_fanout::0                 880142     99.93%     99.93% # Request fanout histogram
system.tol2bus.snoop_fanout::1                    617      0.07%    100.00% # Request fanout histogram
system.tol2bus.snoop_fanout::2                      0      0.00%    100.00% # Request fanout histogram
system.tol2bus.snoop_fanout::overflows              0      0.00%    100.00% # Request fanout histogram
system.tol2bus.snoop_fanout::min_value              0                       # Request fanout histogram
system.tol2bus.snoop_fanout::max_value              1                       # Request fanout histogram
system.tol2bus.snoop_fanout::total             880759                       # Request fanout histogram
system.tol2bus.reqLayer0.occupancy         1347632000                       # Layer occupancy (ticks)
system.tol2bus.reqLayer0.utilization              1.6                       # Layer utilization (%)
system.tol2bus.respLayer1.occupancy        1067571496                       # Layer occupancy (ticks)
system.tol2bus.respLayer1.utilization             1.3                       # Layer utilization (%)
system.tol2bus.respLayer0.occupancy           1137000                       # Layer occupancy (ticks)
system.tol2bus.respLayer0.utilization             0.0                       # Layer utilization (%)
system.voltage_domain.voltage                       1                       # Voltage in Volts
system.clk_domain.clock                          1000                       # Clock period in ticks
system.l2.pwrStateResidencyTicks::UNDEFINED  83998984500                       # Cumulative time (in ticks) in various power states
system.l2.demand_hits::.cpu.inst                   94                       # number of demand (read+write) hits
system.l2.demand_hits::.cpu.data               511397                       # number of demand (read+write) hits
system.l2.demand_hits::total                   511491                       # number of demand (read+write) hits
system.l2.overall_hits::.cpu.inst                  94                       # number of overall hits
system.l2.overall_hits::.cpu.data              511397                       # number of overall hits
system.l2.overall_hits::total                  511491                       # number of overall hits
system.l2.demand_misses::.cpu.inst                664                       # number of demand (read+write) misses
system.l2.demand_misses::.cpu.data             200317                       # number of demand (read+write) misses
system.l2.demand_misses::total                 200981                       # number of demand (read+write) misses
system.l2.overall_misses::.cpu.inst               664                       # number of overall misses
system.l2.overall_misses::.cpu.data            200317                       # number of overall misses
system.l2.overall_misses::total                200981                       # number of overall misses
system.l2.demand_miss_latency::.cpu.inst     52733000                       # number of demand (read+write) miss cycles
system.l2.demand_miss_latency::.cpu.data  16956204500                       # number of demand (read+write) miss cycles
system.l2.demand_miss_latency::total      17008937500                       # number of demand (read+write) miss cycles
system.l2.overall_miss_latency::.cpu.inst     52733000                       # number of overall miss cycles
system.l2.overall_miss_latency::.cpu.data  16956204500                       # number of overall miss cycles
system.l2.overall_miss_latency::total     17008937500                       # number of overall miss cycles
system.l2.demand_accesses::.cpu.inst              758                       # number of demand (read+write) accesses
system.l2.demand_accesses::.cpu.data           711714                       # number of demand (read+write) accesses
system.l2.demand_accesses::total               712472                       # number of demand (read+write) accesses
system.l2.overall_accesses::.cpu.inst             758                       # number of overall (read+write) accesses
system.l2.overall_accesses::.cpu.data          711714                       # number of overall (read+write) accesses
system.l2.overall_accesses::total              712472                       # number of overall (read+write) accesses
system.l2.demand_miss_rate::.cpu.inst        0.875989                       # miss rate for demand accesses
system.l2.demand_miss_rate::.cpu.data        0.281457                       # miss rate for demand accesses
system.l2.demand_miss_rate::total            0.282090                       # miss rate for demand accesses
system.l2.overall_miss_rate::.cpu.inst       0.875989                       # miss rate for overall accesses
system.l2.overall_miss_rate::.cpu.data       0.281457                       # miss rate for overall accesses
system.l2.overall_miss_rate::total           0.282090                       # miss rate for overall accesses
system.l2.demand_avg_miss_latency::.cpu.inst 79417.168675                       # average overall miss latency
system.l2.demand_avg_miss_latency::.cpu.data 84646.857231                       # average overall miss latency
system.l2.demand_avg_miss_latency::total 84629.579413                       # average overall miss latency
system.l2.overall_avg_miss_latency::.cpu.inst 79417.168675                       # average overall miss latency
system.l2.overall_avg_miss_latency::.cpu.data 84646.857231                       # average overall miss latency
system.l2.overall_avg_miss_latency::total 84629.579413                       # average overall miss latency
system.l2.blocked_cycles::no_mshrs                  0                       # number of cycles access was blocked
system.l2.blocked_cycles::no_targets                0                       # number of cycles access was blocked
system.l2.blocked::no_mshrs                         0                       # number of cycles access was blocked
system.l2.blocked::no_targets                       0                       # number of cycles access was blocked
system.l2.avg_blocked_cycles::no_mshrs            nan                       # average number of cycles each access was blocked
system.l2.avg_blocked_cycles::no_targets          nan                       # average number of cycles each access was blocked
system.l2.writebacks::.writebacks              111081                       # number of writebacks
system.l2.writebacks::total                    111081                       # number of writebacks
system.l2.demand_mshr_hits::.cpu.data               4                       # number of demand (read+write) MSHR hits
system.l2.demand_mshr_hits::total                   4                       # number of demand (read+write) MSHR hits
system.l2.overall_mshr_hits::.cpu.data              4                       # number of overall MSHR hits
system.l2.overall_mshr_hits::total                  4                       # number of overall MSHR hits
system.l2.demand_mshr_misses::.cpu.inst           664                       # number of demand (read+write) MSHR misses
system.l2.demand_mshr_misses::.cpu.data        200313                       # number of demand (read+write) MSHR misses
system.l2.demand_mshr_misses::total            200977                       # number of demand (read+write) MSHR misses
system.l2.overall_mshr_misses::.cpu.inst          664                       # number of overall MSHR misses
system.l2.overall_mshr_misses::.cpu.data       200313                       # number of overall MSHR misses
system.l2.overall_mshr_misses::total           200977                       # number of overall MSHR misses
system.l2.demand_mshr_miss_latency::.cpu.inst     46093000                       # number of demand (read+write) MSHR miss cycles
system.l2.demand_mshr_miss_latency::.cpu.data  14952840500                       # number of demand (read+write) MSHR miss cycles
system.l2.demand_mshr_miss_latency::total  14998933500                       # number of demand (read+write) MSHR miss cycles
system.l2.overall_mshr_miss_latency::.cpu.inst     46093000                       # number of overall MSHR miss cycles
system.l2.overall_mshr_miss_latency::.cpu.data  14952840500                       # number of overall MSHR miss cycles
system.l2.overall_mshr_miss_latency::total  14998933500                       # number of overall MSHR miss cycles
system.l2.demand_mshr_miss_rate::.cpu.inst     0.875989                       # mshr miss rate for demand accesses
system.l2.demand_mshr_miss_rate::.cpu.data     0.281452                       # mshr miss rate for demand accesses
system.l2.demand_mshr_miss_rate::total       0.282084                       # mshr miss rate for demand accesses
system.l2.overall_mshr_miss_rate::.cpu.inst     0.875989                       # mshr miss rate for overall accesses
system.l2.overall_mshr_miss_rate::.cpu.data     0.281452                       # mshr miss rate for overall accesses
system.l2.overall_mshr_miss_rate::total      0.282084                       # mshr miss rate for overall accesses
system.l2.demand_avg_mshr_miss_latency::.cpu.inst 69417.168675                       # average overall mshr miss latency
system.l2.demand_avg_mshr_miss_latency::.cpu.data 74647.379351                       # average overall mshr miss latency
system.l2.demand_avg_mshr_miss_latency::total 74630.099464                       # average overall mshr miss latency
system.l2.overall_avg_mshr_miss_latency::.cpu.inst 69417.168675                       # average overall mshr miss latency
system.l2.overall_avg_mshr_miss_latency::.cpu.data 74647.379351                       # average overall mshr miss latency
system.l2.overall_avg_mshr_miss_latency::total 74630.099464                       # average overall mshr miss latency
system.l2.replacements                         168287                       # number of replacements
system.l2.WritebackDirty_hits::.writebacks       635684                       # number of WritebackDirty hits
system.l2.WritebackDirty_hits::total           635684                       # number of WritebackDirty hits
system.l2.WritebackDirty_accesses::.writebacks       635684                       # number of WritebackDirty accesses(hits+misses)
system.l2.WritebackDirty_accesses::total       635684                       # number of WritebackDirty accesses(hits+misses)
system.l2.WritebackClean_hits::.writebacks          233                       # number of WritebackClean hits
system.l2.WritebackClean_hits::total              233                       # number of WritebackClean hits
system.l2.WritebackClean_accesses::.writebacks          233                       # number of WritebackClean accesses(hits+misses)
system.l2.WritebackClean_accesses::total          233                       # number of WritebackClean accesses(hits+misses)
system.l2.ReadExReq_hits::.cpu.data            150266                       # number of ReadExReq hits
system.l2.ReadExReq_hits::total                150266                       # number of ReadExReq hits
system.l2.ReadExReq_misses::.cpu.data          136115                       # number of ReadExReq misses
system.l2.ReadExReq_misses::total              136115                       # number of ReadExReq misses
system.l2.ReadExReq_miss_latency::.cpu.data  11833633500                       # number of ReadExReq miss cycles
system.l2.ReadExReq_miss_latency::total   11833633500                       # number of ReadExReq miss cycles
system.l2.ReadExReq_accesses::.cpu.data        286381                       # number of ReadExReq accesses(hits+misses)
system.l2.ReadExReq_accesses::total            286381                       # number of ReadExReq accesses(hits+misses)
system.l2.ReadExReq_miss_rate::.cpu.data     0.475293                       # miss rate for ReadExReq accesses
system.l2.ReadExReq_miss_rate::total         0.475293                       # miss rate for ReadExReq accesses
system.l2.ReadExReq_avg_miss_latency::.cpu.data 86938.496859                       # average ReadExReq miss latency
system.l2.ReadExReq_avg_miss_latency::total 86938.496859                       # average ReadExReq miss latency
system.l2.ReadExReq_mshr_misses::.cpu.data       136115                       # number of ReadExReq MSHR misses
system.l2.ReadExReq_mshr_misses::total         136115                       # number of ReadExReq MSHR misses
system.l2.ReadExReq_mshr_miss_latency::.cpu.data  10472493500                       # number of ReadExReq MSHR miss cycles
system.l2.ReadExReq_mshr_miss_latency::total  10472493500                       # number of ReadExReq MSHR miss cycles
system.l2.ReadExReq_mshr_miss_rate::.cpu.data     0.475293                       # mshr miss rate for ReadExReq accesses
system.l2.ReadExReq_mshr_miss_rate::total     0.475293                       # mshr miss rate for ReadExReq accesses
system.l2.ReadExReq_avg_mshr_miss_latency::.cpu.data 76938.570327                       # average ReadExReq mshr miss latency
system.l2.ReadExReq_avg_mshr_miss_latency::total 76938.570327                       # average ReadExReq mshr miss latency
system.l2.ReadCleanReq_hits::.cpu.inst             94                       # number of ReadCleanReq hits
system.l2.ReadCleanReq_hits::total                 94                       # number of ReadCleanReq hits
system.l2.ReadCleanReq_misses::.cpu.inst          664                       # number of ReadCleanReq misses
system.l2.ReadCleanReq_misses::total              664                       # number of ReadCleanReq misses
system.l2.ReadCleanReq_miss_latency::.cpu.inst     52733000                       # number of ReadCleanReq miss cycles
system.l2.ReadCleanReq_miss_latency::total     52733000                       # number of ReadCleanReq miss cycles
system.l2.ReadCleanReq_accesses::.cpu.inst          758                       # number of ReadCleanReq accesses(hits+misses)
system.l2.ReadCleanReq_accesses::total            758                       # number of ReadCleanReq accesses(hits+misses)
system.l2.ReadCleanReq_miss_rate::.cpu.inst     0.875989                       # miss rate for ReadCleanReq accesses
system.l2.ReadCleanReq_miss_rate::total      0.875989                       # miss rate for ReadCleanReq accesses
system.l2.ReadCleanReq_avg_miss_latency::.cpu.inst 79417.168675                       # average ReadCleanReq miss latency
system.l2.ReadCleanReq_avg_miss_latency::total 79417.168675                       # average ReadCleanReq miss latency
system.l2.ReadCleanReq_mshr_misses::.cpu.inst          664                       # number of ReadCleanReq MSHR misses
system.l2.ReadCleanReq_mshr_misses::total          664                       # number of ReadCleanReq MSHR misses
system.l2.ReadCleanReq_mshr_miss_latency::.cpu.inst     46093000                       # number of ReadCleanReq MSHR miss cycles
system.l2.ReadCleanReq_mshr_miss_latency::total     46093000                       # number of ReadCleanReq MSHR miss cycles
system.l2.ReadCleanReq_mshr_miss_rate::.cpu.inst     0.875989                       # mshr miss rate for ReadCleanReq accesses
system.l2.ReadCleanReq_mshr_miss_rate::total     0.875989                       # mshr miss rate for ReadCleanReq accesses
system.l2.ReadCleanReq_avg_mshr_miss_latency::.cpu.inst 69417.168675                       # average ReadCleanReq mshr miss latency
system.l2.ReadCleanReq_avg_mshr_miss_latency::total 69417.168675                       # average ReadCleanReq mshr miss latency
system.l2.ReadSharedReq_hits::.cpu.data        361131                       # number of ReadSharedReq hits
system.l2.ReadSharedReq_hits::total            361131                       # number of ReadSharedReq hits
system.l2.ReadSharedReq_misses::.cpu.data        64202                       # number of ReadSharedReq misses
system.l2.ReadSharedReq_misses::total           64202                       # number of ReadSharedReq misses
system.l2.ReadSharedReq_miss_latency::.cpu.data   5122571000                       # number of ReadSharedReq miss cycles
system.l2.ReadSharedReq_miss_latency::total   5122571000                       # number of ReadSharedReq miss cycles
system.l2.ReadSharedReq_accesses::.cpu.data       425333                       # number of ReadSharedReq accesses(hits+misses)
system.l2.ReadSharedReq_accesses::total        425333                       # number of ReadSharedReq accesses(hits+misses)
system.l2.ReadSharedReq_miss_rate::.cpu.data     0.150945                       # miss rate for ReadSharedReq accesses
system.l2.ReadSharedReq_miss_rate::total     0.150945                       # miss rate for ReadSharedReq accesses
system.l2.ReadSharedReq_avg_miss_latency::.cpu.data 79788.339927                       # average ReadSharedReq miss latency
system.l2.ReadSharedReq_avg_miss_latency::total 79788.339927                       # average ReadSharedReq miss latency
system.l2.ReadSharedReq_mshr_hits::.cpu.data            4                       # number of ReadSharedReq MSHR hits
system.l2.ReadSharedReq_mshr_hits::total            4                       # number of ReadSharedReq MSHR hits
system.l2.ReadSharedReq_mshr_misses::.cpu.data        64198                       # number of ReadSharedReq MSHR misses
system.l2.ReadSharedReq_mshr_misses::total        64198                       # number of ReadSharedReq MSHR misses
system.l2.ReadSharedReq_mshr_miss_latency::.cpu.data   4480347000                       # number of ReadSharedReq MSHR miss cycles
system.l2.ReadSharedReq_mshr_miss_latency::total   4480347000                       # number of ReadSharedReq MSHR miss cycles
system.l2.ReadSharedReq_mshr_miss_rate::.cpu.data     0.150936                       # mshr miss rate for ReadSharedReq accesses
system.l2.ReadSharedReq_mshr_miss_rate::total     0.150936                       # mshr miss rate for ReadSharedReq accesses
system.l2.ReadSharedReq_avg_mshr_miss_latency::.cpu.data 69789.510577                       # average ReadSharedReq mshr miss latency
system.l2.ReadSharedReq_avg_mshr_miss_latency::total 69789.510577                       # average ReadSharedReq mshr miss latency
system.l2.tags.pwrStateResidencyTicks::UNDEFINED  83998984500                       # Cumulative time (in ticks) in various power states
system.l2.tags.tagsinuse                 31902.813952                       # Cycle average of tags in use
system.l2.tags.total_refs                     1423281                       # Total number of references to valid blocks.
system.l2.tags.sampled_refs                    201055                       # Sample count of references to valid blocks.
system.l2.tags.avg_refs                      7.079063                       # Average number of references to valid blocks.
system.l2.tags.warmup_cycle                     77000                       # Cycle when the warmup percentage was hit.
system.l2.tags.occ_blocks::.writebacks      22.207727                       # Average occupied blocks per requestor
system.l2.tags.occ_blocks::.cpu.inst        81.470484                       # Average occupied blocks per requestor
system.l2.tags.occ_blocks::.cpu.data     31799.135740                       # Average occupied blocks per requestor
system.l2.tags.occ_percent::.writebacks      0.000678                       # Average percentage of cache occupancy
system.l2.tags.occ_percent::.cpu.inst        0.002486                       # Average percentage of cache occupancy
system.l2.tags.occ_percent::.cpu.data        0.970433                       # Average percentage of cache occupancy
system.l2.tags.occ_percent::total            0.973597                       # Average percentage of cache occupancy
system.l2.tags.occ_task_id_blocks::1024         32768                       # Occupied blocks per task id
system.l2.tags.age_task_id_blocks_1024::0           85                       # Occupied blocks per task id
system.l2.tags.age_task_id_blocks_1024::1          119                       # Occupied blocks per task id
system.l2.tags.age_task_id_blocks_1024::2         1184                       # Occupied blocks per task id
system.l2.tags.age_task_id_blocks_1024::3        15734                       # Occupied blocks per task id
system.l2.tags.age_task_id_blocks_1024::4        15646                       # Occupied blocks per task id
system.l2.tags.occ_task_id_percent::1024            1                       # Percentage of cache occupancy per task id
system.l2.tags.tag_accesses                  11587343                       # Number of tag accesses
system.l2.tags.data_accesses                 11587343                       # Number of data accesses
system.cpu_voltage_domain.voltage                   1                       # Voltage in Volts
system.mem_ctrls.pwrStateResidencyTicks::UNDEFINED  83998984500                       # Cumulative time (in ticks) in various power states
system.mem_ctrls.bytes_read::.cpu.inst          42496                       # Number of bytes read from this memory
system.mem_ctrls.bytes_read::.cpu.data       12820032                       # Number of bytes read from this memory
system.mem_ctrls.bytes_read::total           12862528                       # Number of bytes read from this memory
system.mem_ctrls.bytes_inst_read::.cpu.inst        42496                       # Number of instructions bytes read from this memory
system.mem_ctrls.bytes_inst_read::total         42496                       # Number of instructions bytes read from this memory
system.mem_ctrls.bytes_written::.writebacks      7109184                       # Number of bytes written to this memory
system.mem_ctrls.bytes_written::total         7109184                       # Number of bytes written to this memory
system.mem_ctrls.num_reads::.cpu.inst             664                       # Number of read requests responded to by this memory
system.mem_ctrls.num_reads::.cpu.data          200313                       # Number of read requests responded to by this memory
system.mem_ctrls.num_reads::total              200977                       # Number of read requests responded to by this memory
system.mem_ctrls.num_writes::.writebacks       111081                       # Number of write requests responded to by this memory
system.mem_ctrls.num_writes::total             111081                       # Number of write requests responded to by this memory
system.mem_ctrls.bw_read::.cpu.inst            505911                       # Total read bandwidth from this memory (bytes/s)
system.mem_ctrls.bw_read::.cpu.data         152621274                       # Total read bandwidth from this memory (bytes/s)
system.mem_ctrls.bw_read::total             153127185                       # Total read bandwidth from this memory (bytes/s)
system.mem_ctrls.bw_inst_read::.cpu.inst       505911                       # Instruction read bandwidth from this memory (bytes/s)
system.mem_ctrls.bw_inst_read::total           505911                       # Instruction read bandwidth from this memory (bytes/s)
system.mem_ctrls.bw_write::.writebacks       84634166                       # Write bandwidth from this memory (bytes/s)
system.mem_ctrls.bw_write::total             84634166                       # Write bandwidth from this memory (bytes/s)
system.mem_ctrls.bw_total::.writebacks       84634166                       # Total bandwidth to/from this memory (bytes/s)
system.mem_ctrls.bw_total::.cpu.inst           505911                       # Total bandwidth to/from this memory (bytes/s)
system.mem_ctrls.bw_total::.cpu.data        152621274                       # Total bandwidth to/from this memory (bytes/s)
system.mem_ctrls.bw_total::total            237761351                       # Total bandwidth to/from this memory (bytes/s)
system.mem_ctrls.avgPriority_.writebacks::samples    111081.00                       # Average QoS priority value for accepted requests
system.mem_ctrls.avgPriority_.cpu.inst::samples       664.00                       # Average QoS priority value for accepted requests
system.mem_ctrls.avgPriority_.cpu.data::samples    200275.00                       # Average QoS priority value for accepted requests
system.mem_ctrls.priorityMinLatency      0.000000018750                       # per QoS priority minimum request to response latency (s)
system.mem_ctrls.priorityMaxLatency      0.002994762500                       # per QoS priority maximum request to response latency (s)
system.mem_ctrls.numReadWriteTurnArounds         6644                       # Number of turnarounds from READ to WRITE
system.mem_ctrls.numWriteReadTurnArounds         6644                       # Number of turnarounds from WRITE to READ
system.mem_ctrls.numStayReadState              524150                       # Number of times bus staying in READ state
system.mem_ctrls.numStayWriteState             104561                       # Number of times bus staying in WRITE state
system.mem_ctrls.readReqs                      200977                       # Number of read requests accepted
system.mem_ctrls.writeReqs                     111081                       # Number of write requests accepted
system.mem_ctrls.readBursts                    200977                       # Number of DRAM read bursts, including those serviced by the write queue
system.mem_ctrls.writeBursts                   111081                       # Number of DRAM write bursts, including those merged in the write queue
system.mem_ctrls.servicedByWrQ                     38                       # Number of DRAM read bursts serviced by the write queue
system.mem_ctrls.mergedWrBursts                     0                       # Number of DRAM write bursts merged with an existing one
system.mem_ctrls.neitherReadNorWriteReqs            0                       # Number of requests that are neither read nor write
system.mem_ctrls.perBankRdBursts::0             12829                       # Per bank write bursts
system.mem_ctrls.perBankRdBursts::1             12746                       # Per bank write bursts
system.mem_ctrls.perBankRdBursts::2             12822                       # Per bank write bursts
system.mem_ctrls.perBankRdBursts::3             12536                       # Per bank write bursts
system.mem_ctrls.perBankRdBursts::4             12512                       # Per bank write bursts
system.mem_ctrls.perBankRdBursts::5             12342                       # Per bank write bursts
system.mem_ctrls.perBankRdBursts::6             12294                       # Per bank write bursts
system.mem_ctrls.perBankRdBursts::7             12466                       # Per bank write bursts
system.mem_ctrls.perBankRdBursts::8             12453                       # Per bank write bursts
system.mem_ctrls.perBankRdBursts::9             12397                       # Per bank write bursts
system.mem_ctrls.perBankRdBursts::10            12451                       # Per bank write bursts
system.mem_ctrls.perBankRdBursts::11            12467                       # Per bank write bursts
system.mem_ctrls.perBankRdBursts::12            12637                       # Per bank write bursts
system.mem_ctrls.perBankRdBursts::13            12710                       # Per bank write bursts
system.mem_ctrls.perBankRdBursts::14            12665                       # Per bank write bursts
system.mem_ctrls.perBankRdBursts::15            12612                       # Per bank write bursts
system.mem_ctrls.perBankWrBursts::0              7121                       # Per bank write bursts
system.mem_ctrls.perBankWrBursts::1              7146                       # Per bank write bursts
system.mem_ctrls.perBankWrBursts::2              7168                       # Per bank write bursts
system.mem_ctrls.perBankWrBursts::3              6976                       # Per bank write bursts
system.mem_ctrls.perBankWrBursts::4              6977                       # Per bank write bursts
system.mem_ctrls.perBankWrBursts::5              6933                       # Per bank write bursts
system.mem_ctrls.perBankWrBursts::6              6825                       # Per bank write bursts
system.mem_ctrls.perBankWrBursts::7              6802                       # Per bank write bursts
system.mem_ctrls.perBankWrBursts::8              6794                       # Per bank write bursts
system.mem_ctrls.perBankWrBursts::9              6776                       # Per bank write bursts
system.mem_ctrls.perBankWrBursts::10             6862                       # Per bank write bursts
system.mem_ctrls.perBankWrBursts::11             6810                       # Per bank write bursts
system.mem_ctrls.perBankWrBursts::12             6896                       # Per bank write bursts
system.mem_ctrls.perBankWrBursts::13             6990                       # Per bank write bursts
system.mem_ctrls.perBankWrBursts::14             7008                       # Per bank write bursts
system.mem_ctrls.perBankWrBursts::15             6967                       # Per bank write bursts
system.mem_ctrls.avgRdQLen                       1.08                       # Average read queue length when enqueuing
system.mem_ctrls.avgWrQLen                      24.65                       # Average write queue length when enqueuing
system.mem_ctrls.totQLat                   2940101750                       # Total ticks spent queuing
system.mem_ctrls.totBusLat                 1004695000                       # Total ticks spent in databus transfers
system.mem_ctrls.totMemAccLat              6707708000                       # Total ticks spent from burst creation until serviced by the DRAM
system.mem_ctrls.avgQLat                     14631.81                       # Average queueing delay per DRAM burst
system.mem_ctrls.avgBusLat                    5000.00                       # Average bus latency per DRAM burst
system.mem_ctrls.avgMemAccLat                33381.81                       # Average memory access latency per DRAM burst
system.mem_ctrls.numRdRetry                         0                       # Number of times read queue was full causing retry
system.mem_ctrls.numWrRetry                         0                       # Number of times write queue was full causing retry
system.mem_ctrls.readRowHits                   137982                       # Number of row buffer hits during reads
system.mem_ctrls.writeRowHits                   69699                       # Number of row buffer hits during writes
system.mem_ctrls.readRowHitRate                 68.67                       # Row buffer hit rate for reads
system.mem_ctrls.writeRowHitRate                62.75                       # Row buffer hit rate for writes
system.mem_ctrls.readPktSize::0                     0                       # Read request sizes (log2)
system.mem_ctrls.readPktSize::1                     0                       # Read request sizes (log2)
system.mem_ctrls.readPktSize::2                     0                       # Read request sizes (log2)
system.mem_ctrls.readPktSize::3                     0                       # Read request sizes (log2)
system.mem_ctrls.readPktSize::4                     0                       # Read request sizes (log2)
system.mem_ctrls.readPktSize::5                     0                       # Read request sizes (log2)
system.mem_ctrls.readPktSize::6                200977                       # Read request sizes (log2)
system.mem_ctrls.writePktSize::0                    0                       # Write request sizes (log2)
system.mem_ctrls.writePktSize::1                    0                       # Write request sizes (log2)
system.mem_ctrls.writePktSize::2                    0                       # Write request sizes (log2)
system.mem_ctrls.writePktSize::3                    0                       # Write request sizes (log2)
system.mem_ctrls.writePktSize::4                    0                       # Write request sizes (log2)
system.mem_ctrls.writePktSize::5                    0                       # Write request sizes (log2)
system.mem_ctrls.writePktSize::6               111081                       # Write request sizes (log2)
system.mem_ctrls.rdQLenPdf::0                  139001                       # What read queue length does an incoming req see
system.mem_ctrls.rdQLenPdf::1                   59278                       # What read queue length does an incoming req see
system.mem_ctrls.rdQLenPdf::2                    2353                       # What read queue length does an incoming req see
system.mem_ctrls.rdQLenPdf::3                     306                       # What read queue length does an incoming req see
system.mem_ctrls.rdQLenPdf::4                       1                       # What read queue length does an incoming req see
system.mem_ctrls.rdQLenPdf::5                       0                       # What read queue length does an incoming req see
system.mem_ctrls.rdQLenPdf::6                       0                       # What read queue length does an incoming req see
system.mem_ctrls.rdQLenPdf::7                       0                       # What read queue length does an incoming req see
system.mem_ctrls.rdQLenPdf::8                       0                       # What read queue length does an incoming req see
system.mem_ctrls.rdQLenPdf::9                       0                       # What read queue length does an incoming req see
system.mem_ctrls.rdQLenPdf::10                      0                       # What read queue length does an incoming req see
system.mem_ctrls.rdQLenPdf::11                      0                       # What read queue length does an incoming req see
system.mem_ctrls.rdQLenPdf::12                      0                       # What read queue length does an incoming req see
system.mem_ctrls.rdQLenPdf::13                      0                       # What read queue length does an incoming req see
system.mem_ctrls.rdQLenPdf::14                      0                       # What read queue length does an incoming req see
system.mem_ctrls.rdQLenPdf::15                      0                       # What read queue length does an incoming req see
system.mem_ctrls.rdQLenPdf::16                      0                       # What read queue length does an incoming req see
system.mem_ctrls.rdQLenPdf::17                      0                       # What read queue length does an incoming req see
system.mem_ctrls.rdQLenPdf::18                      0                       # What read queue length does an incoming req see
system.mem_ctrls.rdQLenPdf::19                      0                       # What read queue length does an incoming req see
system.mem_ctrls.rdQLenPdf::20                      0                       # What read queue length does an incoming req see
system.mem_ctrls.rdQLenPdf::21                      0                       # What read queue length does an incoming req see
system.mem_ctrls.rdQLenPdf::22                      0                       # What read queue length does an incoming req see
system.mem_ctrls.rdQLenPdf::23                      0                       # What read queue length does an incoming req see
system.mem_ctrls.rdQLenPdf::24                      0                       # What read queue length does an incoming req see
system.mem_ctrls.rdQLenPdf::25                      0                       # What read queue length does an incoming req see
system.mem_ctrls.rdQLenPdf::26                      0                       # What read queue length does an incoming req see
system.mem_ctrls.rdQLenPdf::27                      0                       # What read queue length does an incoming req see
system.mem_ctrls.rdQLenPdf::28                      0                       # What read queue length does an incoming req see
system.mem_ctrls.rdQLenPdf::29                      0                       # What read queue length does an incoming req see
system.mem_ctrls.rdQLenPdf::30                      0                       # What read queue length does an incoming req see
system.mem_ctrls.rdQLenPdf::31                      0                       # What read queue length does an incoming req see
system.mem_ctrls.wrQLenPdf::0                       1                       # What write queue length does an incoming req see
system.mem_ctrls.wrQLenPdf::1                       1                       # What write queue length does an incoming req see
system.mem_ctrls.wrQLenPdf::2                       1                       # What write queue length does an incoming req see
system.mem_ctrls.wrQLenPdf::3                       1                       # What write queue length does an incoming req see
system.mem_ctrls.wrQLenPdf::4                       1                       # What write queue length does an incoming req see
system.mem_ctrls.wrQLenPdf::5                       1                       # What write queue length does an incoming req see
system.mem_ctrls.wrQLenPdf::6                       1                       # What write queue length does an incoming req see
system.mem_ctrls.wrQLenPdf::7                       1                       # What write queue length does an incoming req see
system.mem_ctrls.wrQLenPdf::8                       1                       # What write queue length does an incoming req see
system.mem_ctrls.wrQLenPdf::9                       1                       # What write queue length does an incoming req see
system.mem_ctrls.wrQLenPdf::10                      1                       # What write queue length does an incoming req see
system.mem_ctrls.wrQLenPdf::11                      1                       # What write queue length does an incoming req see
system.mem_ctrls.wrQLenPdf::12                      1                       # What write queue length does an incoming req see
system.mem_ctrls.wrQLenPdf::13                      1                       # What write queue length does an incoming req see
system.mem_ctrls.wrQLenPdf::14                      1                       # What write queue length does an incoming req see
system.mem_ctrls.wrQLenPdf::15                   2250                       # What write queue length does an incoming req see
system.mem_ctrls.wrQLenPdf::16                   2288                       # What write queue length does an incoming req see
system.mem_ctrls.wrQLenPdf::17                   5557                       # What write queue length does an incoming req see
system.mem_ctrls.wrQLenPdf::18                   6664                       # What write queue length does an incoming req see
system.mem_ctrls.wrQLenPdf::19                   6685                       # What write queue length does an incoming req see
system.mem_ctrls.wrQLenPdf::20                   6705                       # What write queue length does an incoming req see
system.mem_ctrls.wrQLenPdf::21                   6696                       # What write queue length does an incoming req see
system.mem_ctrls.wrQLenPdf::22                   6698                       # What write queue length does an incoming req see
system.mem_ctrls.wrQLenPdf::23                   6699                       # What write queue length does an incoming req see
system.mem_ctrls.wrQLenPdf::24                   6746                       # What write queue length does an incoming req see
system.mem_ctrls.wrQLenPdf::25                   6744                       # What write queue length does an incoming req see
system.mem_ctrls.wrQLenPdf::26                   7141                       # What write queue length does an incoming req see
system.mem_ctrls.wrQLenPdf::27                   6683                       # What write queue length does an incoming req see
system.mem_ctrls.wrQLenPdf::28                   6849                       # What write queue length does an incoming req see
system.mem_ctrls.wrQLenPdf::29                   6696                       # What write queue length does an incoming req see
system.mem_ctrls.wrQLenPdf::30                   6661                       # What write queue length does an incoming req see
system.mem_ctrls.wrQLenPdf::31                   6658                       # What write queue length does an incoming req see
system.mem_ctrls.wrQLenPdf::32                   6644                       # What write queue length does an incoming req see
system.mem_ctrls.wrQLenPdf::33                      2                       # What write queue length does an incoming req see
system.mem_ctrls.wrQLenPdf::34                      0                       # What write queue length does an incoming req see
system.mem_ctrls.wrQLenPdf::35                      0                       # What write queue length does an incoming req see
system.mem_ctrls.wrQLenPdf::36                      0                       # What write queue length does an incoming req see
system.mem_ctrls.wrQLenPdf::37                      0                       # What write queue length does an incoming req see
system.mem_ctrls.wrQLenPdf::38                      0                       # What write queue length does an incoming req see
system.mem_ctrls.wrQLenPdf::39                      0                       # What write queue length does an incoming req see
system.mem_ctrls.wrQLenPdf::40                      0                       # What write queue length does an incoming req see
system.mem_ctrls.wrQLenPdf::41                      0                       # What write queue length does an incoming req see
system.mem_ctrls.wrQLenPdf::42                      0                       # What write queue length does an incoming req see
system.mem_ctrls.wrQLenPdf::43                      0                       # What write queue length does an incoming req see
system.mem_ctrls.wrQLenPdf::44                      0                       # What write queue length does an incoming req see
system.mem_ctrls.wrQLenPdf::45                      0                       # What write queue length does an incoming req see
system.mem_ctrls.wrQLenPdf::46                      0                       # What write queue length does an incoming req see
system.mem_ctrls.wrQLenPdf::47                      0                       # What write queue length does an incoming req see
system.mem_ctrls.wrQLenPdf::48                      0                       # What write queue length does an incoming req see
system.mem_ctrls.wrQLenPdf::49                      0                       # What write queue length does an incoming req see
system.mem_ctrls.wrQLenPdf::50                      0                       # What write queue length does an incoming req see
system.mem_ctrls.wrQLenPdf::51                      0                       # What write queue length does an incoming req see
system.mem_ctrls.wrQLenPdf::52                      0                       # What write queue length does an incoming req see
system.mem_ctrls.wrQLenPdf::53                      0                       # What write queue length does an incoming req see
system.mem_ctrls.wrQLenPdf::54                      0                       # What write queue length does an incoming req see
system.mem_ctrls.wrQLenPdf::55                      0                       # What write queue length does an incoming req see
system.mem_ctrls.wrQLenPdf::56                      0                       # What write queue length does an incoming req see
system.mem_ctrls.wrQLenPdf::57                      0                       # What write queue length does an incoming req see
system.mem_ctrls.wrQLenPdf::58                      0                       # What write queue length does an incoming req see
system.mem_ctrls.wrQLenPdf::59                      0                       # What write queue length does an incoming req see
system.mem_ctrls.wrQLenPdf::60                      0                       # What write queue length does an incoming req see
system.mem_ctrls.wrQLenPdf::61                      0                       # What write queue length does an incoming req see
system.mem_ctrls.wrQLenPdf::62                      0                       # What write queue length does an incoming req see
system.mem_ctrls.wrQLenPdf::63                      0                       # What write queue length does an incoming req see
system.mem_ctrls.bytesPerActivate::samples       104301                       # Bytes accessed per row activation
system.mem_ctrls.bytesPerActivate::mean    191.434253                       # Bytes accessed per row activation
system.mem_ctrls.bytesPerActivate::gmean   111.358865                       # Bytes accessed per row activation
system.mem_ctrls.bytesPerActivate::stdev   257.316794                       # Bytes accessed per row activation
system.mem_ctrls.bytesPerActivate::0-127        69206     66.35%     66.35% # Bytes accessed per row activation
system.mem_ctrls.bytesPerActivate::128-255        14054     13.47%     79.83% # Bytes accessed per row activation
system.mem_ctrls.bytesPerActivate::256-383         2490      2.39%     82.21% # Bytes accessed per row activation
system.mem_ctrls.bytesPerActivate::384-511         1329      1.27%     83.49% # Bytes accessed per row activation
system.mem_ctrls.bytesPerActivate::512-639         9607      9.21%     92.70% # Bytes accessed per row activation
system.mem_ctrls.bytesPerActivate::640-767          899      0.86%     93.56% # Bytes accessed per row activation
system.mem_ctrls.bytesPerActivate::768-895          581      0.56%     94.12% # Bytes accessed per row activation
system.mem_ctrls.bytesPerActivate::896-1023          396      0.38%     94.50% # Bytes accessed per row activation
system.mem_ctrls.bytesPerActivate::1024-1151         5739      5.50%    100.00% # Bytes accessed per row activation
system.mem_ctrls.bytesPerActivate::total       104301                       # Bytes accessed per row activation
system.mem_ctrls.rdPerTurnAround::samples         6644                       # Reads before turning the bus around for writes
system.mem_ctrls.rdPerTurnAround::mean      30.241421                       # Reads before turning the bus around for writes
system.mem_ctrls.rdPerTurnAround::gmean     23.773625                       # Reads before turning the bus around for writes
system.mem_ctrls.rdPerTurnAround::stdev     52.266246                       # Reads before turning the bus around for writes
system.mem_ctrls.rdPerTurnAround::0-127          6477     97.49%     97.49% # Reads before turning the bus around for writes
system.mem_ctrls.rdPerTurnAround::128-255           38      0.57%     98.06% # Reads before turning the bus around for writes
system.mem_ctrls.rdPerTurnAround::256-383          126      1.90%     99.95% # Reads before turning the bus around for writes
system.mem_ctrls.rdPerTurnAround::512-639            1      0.02%     99.97% # Reads before turning the bus around for writes
system.mem_ctrls.rdPerTurnAround::1664-1791            1      0.02%     99.98% # Reads before turning the bus around for writes
system.mem_ctrls.rdPerTurnAround::2432-2559            1      0.02%    100.00% # Reads before turning the bus around for writes
system.mem_ctrls.rdPerTurnAround::total          6644                       # Reads before turning the bus around for writes
system.mem_ctrls.wrPerTurnAround::samples         6644                       # Writes before turning the bus around for reads
system.mem_ctrls.wrPerTurnAround::mean      16.714479                       # Writes before turning the bus around for reads
[...]
system.cpu.icache.ReadReq_mshr_misses::.cpu.inst          758                       # number of ReadReq MSHR misses
system.cpu.icache.ReadReq_mshr_misses::total          758                       # number of ReadReq MSHR misses
system.cpu.icache.ReadReq_mshr_miss_latency::.cpu.inst     54876500                       # number of ReadReq MSHR miss cycles
system.cpu.icache.ReadReq_mshr_miss_latency::total     54876500                       # number of ReadReq MSHR miss cycles
system.cpu.icache.ReadReq_mshr_miss_rate::.cpu.inst     0.000078                       # mshr miss rate for ReadReq accesses
system.cpu.icache.ReadReq_mshr_miss_rate::total     0.000078                       # mshr miss rate for ReadReq accesses
system.cpu.icache.ReadReq_avg_mshr_miss_latency::.cpu.inst 72396.437995                       # average ReadReq mshr miss latency
system.cpu.icache.ReadReq_avg_mshr_miss_latency::total 72396.437995                       # average ReadReq mshr miss latency
system.cpu.icache.tags.pwrStateResidencyTicks::UNDEFINED  83998984500                       # Cumulative time (in ticks) in various power states
system.cpu.icache.tags.tagsinuse           419.641092                       # Cycle average of tags in use
system.cpu.icache.tags.total_refs             9663378                       # Total number of references to valid blocks.
system.cpu.icache.tags.sampled_refs               758                       # Sample count of references to valid blocks.
system.cpu.icache.tags.avg_refs          12748.519789                       # Average number of references to valid blocks.
system.cpu.icache.tags.warmup_cycle             87500                       # Cycle when the warmup percentage was hit.
system.cpu.icache.tags.occ_blocks::.cpu.inst   419.641092                       # Average occupied blocks per requestor
system.cpu.icache.tags.occ_percent::.cpu.inst     0.409806                       # Average percentage of cache occupancy
system.cpu.icache.tags.occ_percent::total     0.409806                       # Average percentage of cache occupancy
system.cpu.icache.tags.occ_task_id_blocks::1024          513                       # Occupied blocks per task id
system.cpu.icache.tags.age_task_id_blocks_1024::3          106                       # Occupied blocks per task id
system.cpu.icache.tags.age_task_id_blocks_1024::4          407                       # Occupied blocks per task id
system.cpu.icache.tags.occ_task_id_percent::1024     0.500977                       # Percentage of cache occupancy per task id
system.cpu.icache.tags.tag_accesses           9664136                       # Number of tag accesses
system.cpu.icache.tags.data_accesses          9664136                       # Number of data accesses
system.cpu.dtb.walker.pwrStateResidencyTicks::UNDEFINED  83998984500                       # Cumulative time (in ticks) in various power states
system.cpu.dtb.stage2_mmu.stage2_tlb.walker.pwrStateResidencyTicks::UNDEFINED  83998984500                       # Cumulative time (in ticks) in various power states
system.cpu.dcache.pwrStateResidencyTicks::UNDEFINED  83998984500                       # Cumulative time (in ticks) in various power states
system.cpu.dcache.demand_hits::.cpu.data     51305556                       # number of demand (read+write) hits
system.cpu.dcache.demand_hits::total         51305556                       # number of demand (read+write) hits
system.cpu.dcache.overall_hits::.cpu.data     51306064                       # number of overall hits
system.cpu.dcache.overall_hits::total        51306064                       # number of overall hits
system.cpu.dcache.demand_misses::.cpu.data       762884                       # number of demand (read+write) misses
system.cpu.dcache.demand_misses::total         762884                       # number of demand (read+write) misses
system.cpu.dcache.overall_misses::.cpu.data       770795                       # number of overall misses
system.cpu.dcache.overall_misses::total        770795                       # number of overall misses
system.cpu.dcache.demand_miss_latency::.cpu.data  25045551494                       # number of demand (read+write) miss cycles
system.cpu.dcache.demand_miss_latency::total  25045551494                       # number of demand (read+write) miss cycles
system.cpu.dcache.overall_miss_latency::.cpu.data  25045551494                       # number of overall miss cycles
system.cpu.dcache.overall_miss_latency::total  25045551494                       # number of overall miss cycles
system.cpu.dcache.demand_accesses::.cpu.data     52068440                       # number of demand (read+write) accesses
system.cpu.dcache.demand_accesses::total     52068440                       # number of demand (read+write) accesses
system.cpu.dcache.overall_accesses::.cpu.data     52076859                       # number of overall (read+write) accesses
system.cpu.dcache.overall_accesses::total     52076859                       # number of overall (read+write) accesses
system.cpu.dcache.demand_miss_rate::.cpu.data     0.014652                       # miss rate for demand accesses
system.cpu.dcache.demand_miss_rate::total     0.014652                       # miss rate for demand accesses
system.cpu.dcache.overall_miss_rate::.cpu.data     0.014801                       # miss rate for overall accesses
system.cpu.dcache.overall_miss_rate::total     0.014801                       # miss rate for overall accesses
system.cpu.dcache.demand_avg_miss_latency::.cpu.data 32830.091461                       # average overall miss latency
system.cpu.dcache.demand_avg_miss_latency::total 32830.091461                       # average overall miss latency
system.cpu.dcache.overall_avg_miss_latency::.cpu.data 32493.142138                       # average overall miss latency
system.cpu.dcache.overall_avg_miss_latency::total 32493.142138                       # average overall miss latency
system.cpu.dcache.blocked_cycles::no_mshrs       202024                       # number of cycles access was blocked
system.cpu.dcache.blocked_cycles::no_targets            0                       # number of cycles access was blocked
system.cpu.dcache.blocked::no_mshrs              3274                       # number of cycles access was blocked
system.cpu.dcache.blocked::no_targets               0                       # number of cycles access was blocked
system.cpu.dcache.avg_blocked_cycles::no_mshrs    61.705559                       # average number of cycles each access was blocked
system.cpu.dcache.avg_blocked_cycles::no_targets          nan                       # average number of cycles each access was blocked
system.cpu.dcache.writebacks::.writebacks       635684                       # number of writebacks
system.cpu.dcache.writebacks::total            635684                       # number of writebacks
system.cpu.dcache.demand_mshr_hits::.cpu.data        59075                       # number of demand (read+write) MSHR hits
system.cpu.dcache.demand_mshr_hits::total        59075                       # number of demand (read+write) MSHR hits
system.cpu.dcache.overall_mshr_hits::.cpu.data        59075                       # number of overall MSHR hits
system.cpu.dcache.overall_mshr_hits::total        59075                       # number of overall MSHR hits
system.cpu.dcache.demand_mshr_misses::.cpu.data       703809                       # number of demand (read+write) MSHR misses
system.cpu.dcache.demand_mshr_misses::total       703809                       # number of demand (read+write) MSHR misses
system.cpu.dcache.overall_mshr_misses::.cpu.data       711714                       # number of overall MSHR misses
system.cpu.dcache.overall_mshr_misses::total       711714                       # number of overall MSHR misses
system.cpu.dcache.demand_mshr_miss_latency::.cpu.data  22729224000                       # number of demand (read+write) MSHR miss cycles
system.cpu.dcache.demand_mshr_miss_latency::total  22729224000                       # number of demand (read+write) MSHR miss cycles
system.cpu.dcache.overall_mshr_miss_latency::.cpu.data  23398308499                       # number of overall MSHR miss cycles
system.cpu.dcache.overall_mshr_miss_latency::total  23398308499                       # number of overall MSHR miss cycles
system.cpu.dcache.demand_mshr_miss_rate::.cpu.data     0.013517                       # mshr miss rate for demand accesses
system.cpu.dcache.demand_mshr_miss_rate::total     0.013517                       # mshr miss rate for demand accesses
system.cpu.dcache.overall_mshr_miss_rate::.cpu.data     0.013667                       # mshr miss rate for overall accesses
system.cpu.dcache.overall_mshr_miss_rate::total     0.013667                       # mshr miss rate for overall accesses
system.cpu.dcache.demand_avg_mshr_miss_latency::.cpu.data 32294.591288                       # average overall mshr miss latency
system.cpu.dcache.demand_avg_mshr_miss_latency::total 32294.591288                       # average overall mshr miss latency
system.cpu.dcache.overall_avg_mshr_miss_latency::.cpu.data 32875.998644                       # average overall mshr miss latency
system.cpu.dcache.overall_avg_mshr_miss_latency::total 32875.998644                       # average overall mshr miss latency
system.cpu.dcache.replacements                 710689                       # number of replacements
system.cpu.dcache.ReadReq_hits::.cpu.data     40700316                       # number of ReadReq hits
system.cpu.dcache.ReadReq_hits::total        40700316                       # number of ReadReq hits
system.cpu.dcache.ReadReq_misses::.cpu.data       418033                       # number of ReadReq misses
system.cpu.dcache.ReadReq_misses::total        418033                       # number of ReadReq misses
system.cpu.dcache.ReadReq_miss_latency::.cpu.data   9329720000                       # number of ReadReq miss cycles
system.cpu.dcache.ReadReq_miss_latency::total   9329720000                       # number of ReadReq miss cycles
system.cpu.dcache.ReadReq_accesses::.cpu.data     41118349                       # number of ReadReq accesses(hits+misses)
system.cpu.dcache.ReadReq_accesses::total     41118349                       # number of ReadReq accesses(hits+misses)
system.cpu.dcache.ReadReq_miss_rate::.cpu.data     0.010167                       # miss rate for ReadReq accesses
system.cpu.dcache.ReadReq_miss_rate::total     0.010167                       # miss rate for ReadReq accesses
system.cpu.dcache.ReadReq_avg_miss_latency::.cpu.data 22318.142348                       # average ReadReq miss latency
system.cpu.dcache.ReadReq_avg_miss_latency::total 22318.142348                       # average ReadReq miss latency
system.cpu.dcache.ReadReq_mshr_hits::.cpu.data          605                       # number of ReadReq MSHR hits
system.cpu.dcache.ReadReq_mshr_hits::total          605                       # number of ReadReq MSHR hits
system.cpu.dcache.ReadReq_mshr_misses::.cpu.data       417428                       # number of ReadReq MSHR misses
system.cpu.dcache.ReadReq_mshr_misses::total       417428                       # number of ReadReq MSHR misses
system.cpu.dcache.ReadReq_mshr_miss_latency::.cpu.data   8886508000                       # number of ReadReq MSHR miss cycles
system.cpu.dcache.ReadReq_mshr_miss_latency::total   8886508000                       # number of ReadReq MSHR miss cycles
system.cpu.dcache.ReadReq_mshr_miss_rate::.cpu.data     0.010152                       # mshr miss rate for ReadReq accesses
system.cpu.dcache.ReadReq_mshr_miss_rate::total     0.010152                       # mshr miss rate for ReadReq accesses
system.cpu.dcache.ReadReq_avg_mshr_miss_latency::.cpu.data 21288.720450                       # average ReadReq mshr miss latency
system.cpu.dcache.ReadReq_avg_mshr_miss_latency::total 21288.720450                       # average ReadReq mshr miss latency
system.cpu.dcache.WriteReq_hits::.cpu.data     10605240                       # number of WriteReq hits
system.cpu.dcache.WriteReq_hits::total       10605240                       # number of WriteReq hits
system.cpu.dcache.WriteReq_misses::.cpu.data       344851                       # number of WriteReq misses
system.cpu.dcache.WriteReq_misses::total       344851                       # number of WriteReq misses
system.cpu.dcache.WriteReq_miss_latency::.cpu.data  15715831494                       # number of WriteReq miss cycles
system.cpu.dcache.WriteReq_miss_latency::total  15715831494                       # number of WriteReq miss cycles
system.cpu.dcache.WriteReq_accesses::.cpu.data     10950091                       # number of WriteReq accesses(hits+misses)
system.cpu.dcache.WriteReq_accesses::total     10950091                       # number of WriteReq accesses(hits+misses)
system.cpu.dcache.WriteReq_miss_rate::.cpu.data     0.031493                       # miss rate for WriteReq accesses
system.cpu.dcache.WriteReq_miss_rate::total     0.031493                       # miss rate for WriteReq accesses
system.cpu.dcache.WriteReq_avg_miss_latency::.cpu.data 45572.816938                       # average WriteReq miss latency
system.cpu.dcache.WriteReq_avg_miss_latency::total 45572.816938                       # average WriteReq miss latency
system.cpu.dcache.WriteReq_mshr_hits::.cpu.data        58470                       # number of WriteReq MSHR hits
system.cpu.dcache.WriteReq_mshr_hits::total        58470                       # number of WriteReq MSHR hits
system.cpu.dcache.WriteReq_mshr_misses::.cpu.data       286381                       # number of WriteReq MSHR misses
system.cpu.dcache.WriteReq_mshr_misses::total       286381                       # number of WriteReq MSHR misses
system.cpu.dcache.WriteReq_mshr_miss_latency::.cpu.data  13842716000                       # number of WriteReq MSHR miss cycles
system.cpu.dcache.WriteReq_mshr_miss_latency::total  13842716000                       # number of WriteReq MSHR miss cycles
system.cpu.dcache.WriteReq_mshr_miss_rate::.cpu.data     0.026153                       # mshr miss rate for WriteReq accesses
system.cpu.dcache.WriteReq_mshr_miss_rate::total     0.026153                       # mshr miss rate for WriteReq accesses
system.cpu.dcache.WriteReq_avg_mshr_miss_latency::.cpu.data 48336.712282                       # average WriteReq mshr miss latency
system.cpu.dcache.WriteReq_avg_mshr_miss_latency::total 48336.712282                       # average WriteReq mshr miss latency
system.cpu.dcache.SoftPFReq_hits::.cpu.data          508                       # number of SoftPFReq hits
system.cpu.dcache.SoftPFReq_hits::total           508                       # number of SoftPFReq hits
system.cpu.dcache.SoftPFReq_misses::.cpu.data         7911                       # number of SoftPFReq misses
system.cpu.dcache.SoftPFReq_misses::total         7911                       # number of SoftPFReq misses
system.cpu.dcache.SoftPFReq_accesses::.cpu.data         8419                       # number of SoftPFReq accesses(hits+misses)
system.cpu.dcache.SoftPFReq_accesses::total         8419                       # number of SoftPFReq accesses(hits+misses)
system.cpu.dcache.SoftPFReq_miss_rate::.cpu.data     0.939660                       # miss rate for SoftPFReq accesses
system.cpu.dcache.SoftPFReq_miss_rate::total     0.939660                       # miss rate for SoftPFReq accesses
system.cpu.dcache.SoftPFReq_mshr_misses::.cpu.data         7905                       # number of SoftPFReq MSHR misses
system.cpu.dcache.SoftPFReq_mshr_misses::total         7905                       # number of SoftPFReq MSHR misses
system.cpu.dcache.SoftPFReq_mshr_miss_latency::.cpu.data    669084499                       # number of SoftPFReq MSHR miss cycles
system.cpu.dcache.SoftPFReq_mshr_miss_latency::total    669084499                       # number of SoftPFReq MSHR miss cycles
system.cpu.dcache.SoftPFReq_mshr_miss_rate::.cpu.data     0.938948                       # mshr miss rate for SoftPFReq accesses
system.cpu.dcache.SoftPFReq_mshr_miss_rate::total     0.938948                       # mshr miss rate for SoftPFReq accesses
system.cpu.dcache.SoftPFReq_avg_mshr_miss_latency::.cpu.data 84640.670335                       # average SoftPFReq mshr miss latency
system.cpu.dcache.SoftPFReq_avg_mshr_miss_latency::total 84640.670335                       # average SoftPFReq mshr miss latency
system.cpu.dcache.LoadLockedReq_hits::.cpu.data           38                       # number of LoadLockedReq hits
system.cpu.dcache.LoadLockedReq_hits::total           38                       # number of LoadLockedReq hits
system.cpu.dcache.LoadLockedReq_accesses::.cpu.data           38                       # number of LoadLockedReq accesses(hits+misses)
system.cpu.dcache.LoadLockedReq_accesses::total           38                       # number of LoadLockedReq accesses(hits+misses)
system.cpu.dcache.StoreCondReq_hits::.cpu.data           38                       # number of StoreCondReq hits
system.cpu.dcache.StoreCondReq_hits::total           38                       # number of StoreCondReq hits
system.cpu.dcache.StoreCondReq_accesses::.cpu.data           38                       # number of StoreCondReq accesses(hits+misses)
system.cpu.dcache.StoreCondReq_accesses::total           38                       # number of StoreCondReq accesses(hits+misses)
system.cpu.dcache.tags.pwrStateResidencyTicks::UNDEFINED  83998984500                       # Cumulative time (in ticks) in various power states
system.cpu.dcache.tags.tagsinuse          1008.126530                       # Cycle average of tags in use
system.cpu.dcache.tags.total_refs            52017853                       # Total number of references to valid blocks.
system.cpu.dcache.tags.sampled_refs            711713                       # Sample count of references to valid blocks.
system.cpu.dcache.tags.avg_refs             73.088243                       # Average number of references to valid blocks.
system.cpu.dcache.tags.warmup_cycle            176500                       # Cycle when the warmup percentage was hit.
system.cpu.dcache.tags.occ_blocks::.cpu.data  1008.126530                       # Average occupied blocks per requestor
system.cpu.dcache.tags.occ_percent::.cpu.data     0.984499                       # Average percentage of cache occupancy
system.cpu.dcache.tags.occ_percent::total     0.984499                       # Average percentage of cache occupancy
system.cpu.dcache.tags.occ_task_id_blocks::1024         1024                       # Occupied blocks per task id
system.cpu.dcache.tags.age_task_id_blocks_1024::0          238                       # Occupied blocks per task id
system.cpu.dcache.tags.age_task_id_blocks_1024::1          440                       # Occupied blocks per task id
system.cpu.dcache.tags.age_task_id_blocks_1024::2          344                       # Occupied blocks per task id
system.cpu.dcache.tags.age_task_id_blocks_1024::3            1                       # Occupied blocks per task id
system.cpu.dcache.tags.age_task_id_blocks_1024::4            1                       # Occupied blocks per task id
system.cpu.dcache.tags.occ_task_id_percent::1024            1                       # Percentage of cache occupancy per task id
system.cpu.dcache.tags.tag_accesses         104865583                       # Number of tag accesses
system.cpu.dcache.tags.data_accesses        104865583                       # Number of data accesses
system.cpu.itb.walker.pwrStateResidencyTicks::UNDEFINED  83998984500                       # Cumulative time (in ticks) in various power states
system.cpu.itb.stage2_mmu.stage2_tlb.walker.pwrStateResidencyTicks::UNDEFINED  83998984500                       # Cumulative time (in ticks) in various power states

---------- End Simulation Statistics   ----------
