
---------- Begin Simulation Statistics ----------
final_tick                                81870145000                       # Number of ticks from beginning of simulation (restored from checkpoints and never reset)
host_inst_rate                                 265207                       # Simulator instruction rate (inst/s)
host_mem_usage                                 702516                       # Number of bytes of host memory used
host_op_rate                                   265727                       # Simulator op (including micro ops) rate (op/s)
host_seconds                                   377.06                       # Real time elapsed on the host
host_tick_rate                              217125111                       # Simulator tick rate (ticks/s)
sim_freq                                 1000000000000                       # Frequency of simulated ticks
sim_insts                                   100000001                       # Number of instructions simulated
sim_ops                                     100196363                       # Number of ops (including micro ops) simulated
sim_seconds                                  0.081870                       # Number of seconds simulated
sim_ticks                                 81870145000                       # Number of ticks simulated
system.cpu.branchPred.BTBCorrect                    0                       # Number of correct BTB predictions (this stat may not work properly.
system.cpu.branchPred.BTBHitPct             99.694691                       # BTB Hit Percentage
system.cpu.branchPred.BTBHits                 2095391                       # Number of BTB hits
system.cpu.branchPred.BTBLookups              2101808                       # Number of BTB lookups
system.cpu.branchPred.RASInCorrect                  5                       # Number of incorrect RAS predictions.
system.cpu.branchPred.condIncorrect             81341                       # Number of conditional branches incorrect
system.cpu.branchPred.condPredicted           3727618                       # Number of conditional branches predicted
system.cpu.branchPred.indirectHits                291                       # Number of indirect target hits.
system.cpu.branchPred.indirectLookups             808                       # Number of indirect predictor lookups.
system.cpu.branchPred.indirectMisses              517                       # Number of indirect misses.
system.cpu.branchPred.lookups                 4477696                       # Number of BP lookups
system.cpu.branchPred.usedRAS                   65338                       # Number of times the RAS was used to get a target.
system.cpu.branchPredindirectMispredicted          171                       # Number of mispredicted indirect branches.
system.cpu.committedInsts                   100000001                       # Number of instructions committed
system.cpu.committedOps                     100196363                       # Number of ops (including micro ops) committed
system.cpu.cpi                               1.637403                       # CPI: cycles per instruction
system.cpu.discardedOps                        190621                       # Number of ops (including micro ops) which were discarded before commit
system.cpu.dtb.accesses                             0                       # DTB accesses
system.cpu.dtb.align_faults                         0                       # Number of TLB faults due to alignment restrictions
system.cpu.dtb.domain_faults                        0                       # Number of TLB faults due to domain restrictions
system.cpu.dtb.flush_entries                        0                       # Number of entries that have been flushed from TLB
system.cpu.dtb.flush_tlb                            0                       # Number of times complete TLB was flushed
system.cpu.dtb.flush_tlb_asid                       0                       # Number of times TLB was flushed by ASID
system.cpu.dtb.flush_tlb_mva                        0                       # Number of times TLB was flushed by MVA
system.cpu.dtb.flush_tlb_mva_asid                   0                       # Number of times TLB was flushed by MVA & ASID
system.cpu.dtb.hits                                 0                       # DTB hits
system.cpu.dtb.inst_accesses                        0                       # ITB inst accesses
system.cpu.dtb.inst_hits                            0                       # ITB inst hits
system.cpu.dtb.inst_misses                          0                       # ITB inst misses
system.cpu.dtb.misses                               0                       # DTB misses
system.cpu.dtb.perms_faults                         0                       # Number of TLB faults due to permissions restrictions
system.cpu.dtb.prefetch_faults                      0                       # Number of TLB faults due to prefetch
system.cpu.dtb.read_accesses                        0                       # DTB read accesses
system.cpu.dtb.read_hits                            0                       # DTB read hits
system.cpu.dtb.read_misses                          0                       # DTB read misses
system.cpu.dtb.stage2_mmu.stage2_tlb.accesses            0                       # DTB accesses
system.cpu.dtb.stage2_mmu.stage2_tlb.align_faults            0                       # Number of TLB faults due to alignment restrictions
system.cpu.dtb.stage2_mmu.stage2_tlb.domain_faults            0                       # Number of TLB faults due to domain restrictions
system.cpu.dtb.stage2_mmu.stage2_tlb.flush_entries            0                       # Number of entries that have been flushed from TLB
system.cpu.dtb.stage2_mmu.stage2_tlb.flush_tlb            0                       # Number of times complete TLB was flushed
system.cpu.dtb.stage2_mmu.stage2_tlb.flush_tlb_asid            0                       # Number of times TLB was flushed by ASID
system.cpu.dtb.stage2_mmu.stage2_tlb.flush_tlb_mva            0                       # Number of times TLB was flushed by MVA
system.cpu.dtb.stage2_mmu.stage2_tlb.flush_tlb_mva_asid            0                       # Number of times TLB was flushed by MVA & ASID
system.cpu.dtb.stage2_mmu.stage2_tlb.hits            0                       # DTB hits
system.cpu.dtb.stage2_mmu.stage2_tlb.inst_accesses            0                       # ITB inst accesses
system.cpu.dtb.stage2_mmu.stage2_tlb.inst_hits            0                       # ITB inst hits
system.cpu.dtb.stage2_mmu.stage2_tlb.inst_misses            0                       # ITB inst misses
system.cpu.dtb.stage2_mmu.stage2_tlb.misses            0                       # DTB misses
system.cpu.dtb.stage2_mmu.stage2_tlb.perms_faults            0                       # Number of TLB faults due to permissions restrictions
system.cpu.dtb.stage2_mmu.stage2_tlb.prefetch_faults            0                       # Number of TLB faults due to prefetch
system.cpu.dtb.stage2_mmu.stage2_tlb.read_accesses            0                       # DTB read accesses
system.cpu.dtb.stage2_mmu.stage2_tlb.read_hits            0                       # DTB read hits
system.cpu.dtb.stage2_mmu.stage2_tlb.read_misses            0                       # DTB read misses
system.cpu.dtb.stage2_mmu.stage2_tlb.walker.walkRequestOrigin_Requested::Data            0                       # Table walker requests started/completed, data/inst
system.cpu.dtb.stage2_mmu.stage2_tlb.walker.walkRequestOrigin_Requested::Inst            0                       # Table walker requests started/completed, data/inst
system.cpu.dtb.stage2_mmu.stage2_tlb.walker.walkRequestOrigin_Requested::total            0                       # Table walker requests started/completed, data/inst
system.cpu.dtb.stage2_mmu.stage2_tlb.walker.walkRequestOrigin_Completed::Data            0                       # Table walker requests started/completed, data/inst
system.cpu.dtb.stage2_mmu.stage2_tlb.walker.walkRequestOrigin_Completed::Inst            0                       # Table walker requests started/completed, data/inst
system.cpu.dtb.stage2_mmu.stage2_tlb.walker.walkRequestOrigin_Completed::total            0                       # Table walker requests started/completed, data/inst
system.cpu.dtb.stage2_mmu.stage2_tlb.walker.walkRequestOrigin::total            0                       # Table walker requests started/completed, data/inst
system.cpu.dtb.stage2_mmu.stage2_tlb.walker.walks            0                       # Table walker walks requested
system.cpu.dtb.stage2_mmu.stage2_tlb.write_accesses            0                       # DTB write accesses
system.cpu.dtb.stage2_mmu.stage2_tlb.write_hits            0                       # DTB write hits
system.cpu.dtb.stage2_mmu.stage2_tlb.write_misses            0                       # DTB write misses
system.cpu.dtb.walker.walkRequestOrigin_Requested::Data            0                       # Table walker requests started/completed, data/inst
system.cpu.dtb.walker.walkRequestOrigin_Requested::Inst            0                       # Table walker requests started/completed, data/inst
system.cpu.dtb.walker.walkRequestOrigin_Requested::total            0                       # Table walker requests started/completed, data/inst
system.cpu.dtb.walker.walkRequestOrigin_Completed::Data            0                       # Table walker requests started/completed, data/inst
system.cpu.dtb.walker.walkRequestOrigin_Completed::Inst            0                       # Table walker requests started/completed, data/inst
system.cpu.dtb.walker.walkRequestOrigin_Completed::total            0                       # Table walker requests started/completed, data/inst
system.cpu.dtb.walker.walkRequestOrigin::total            0                       # Table walker requests started/completed, data/inst
system.cpu.dtb.walker.walks                         0                       # Table walker walks requested
system.cpu.dtb.write_accesses                       0                       # DTB write accesses
system.cpu.dtb.write_hits                           0                       # DTB write hits
system.cpu.dtb.write_misses                         0                       # DTB write misses
system.cpu.fetch2.amo_instructions                  0                       # Number of memory atomic instructions successfully decoded
system.cpu.fetch2.fp_instructions                   0                       # Number of floating point instructions successfully decoded
system.cpu.fetch2.int_instructions           42610034                       # Number of integer instructions successfully decoded
system.cpu.fetch2.load_instructions          43402238                       # Number of memory load instructions successfully decoded
system.cpu.fetch2.store_instructions         11001380                       # Number of memory store instructions successfully decoded
system.cpu.fetch2.vec_instructions                  0                       # Number of SIMD instructions successfully decoded
system.cpu.idleCycles                        31167591                       # Total number of cycles that the object has spent stopped
system.cpu.ipc                               0.610723                       # IPC: instructions per cycle
system.cpu.itb.accesses                             0                       # DTB accesses
system.cpu.itb.align_faults                         0                       # Number of TLB faults due to alignment restrictions
system.cpu.itb.domain_faults                        0                       # Number of TLB faults due to domain restrictions
system.cpu.itb.flush_entries                        0                       # Number of entries that have been flushed from TLB
system.cpu.itb.flush_tlb                            0                       # Number of times complete TLB was flushed
system.cpu.itb.flush_tlb_asid                       0                       # Number of times TLB was flushed by ASID
system.cpu.itb.flush_tlb_mva                        0                       # Number of times TLB was flushed by MVA
system.cpu.itb.flush_tlb_mva_asid                   0                       # Number of times TLB was flushed by MVA & ASID
system.cpu.itb.hits                                 0                       # DTB hits
system.cpu.itb.inst_accesses                        0                       # ITB inst accesses
system.cpu.itb.inst_hits                            0                       # ITB inst hits
system.cpu.itb.inst_misses                          0                       # ITB inst misses
system.cpu.itb.misses                               0                       # DTB misses
system.cpu.itb.perms_faults                         0                       # Number of TLB faults due to permissions restrictions
system.cpu.itb.prefetch_faults                      0                       # Number of TLB faults due to prefetch
system.cpu.itb.read_accesses                        0                       # DTB read accesses
system.cpu.itb.read_hits                            0                       # DTB read hits
system.cpu.itb.read_misses                          0                       # DTB read misses
system.cpu.itb.stage2_mmu.stage2_tlb.accesses            0                       # DTB accesses
system.cpu.itb.stage2_mmu.stage2_tlb.align_faults            0                       # Number of TLB faults due to alignment restrictions
system.cpu.itb.stage2_mmu.stage2_tlb.domain_faults            0                       # Number of TLB faults due to domain restrictions
system.cpu.itb.stage2_mmu.stage2_tlb.flush_entries            0                       # Number of entries that have been flushed from TLB
system.cpu.itb.stage2_mmu.stage2_tlb.flush_tlb            0                       # Number of times complete TLB was flushed
system.cpu.itb.stage2_mmu.stage2_tlb.flush_tlb_asid            0                       # Number of times TLB was flushed by ASID
system.cpu.itb.stage2_mmu.stage2_tlb.flush_tlb_mva            0                       # Number of times TLB was flushed by MVA
system.cpu.itb.stage2_mmu.stage2_tlb.flush_tlb_mva_asid            0                       # Number of times TLB was flushed by MVA & ASID
system.cpu.itb.stage2_mmu.stage2_tlb.hits            0                       # DTB hits
system.cpu.itb.stage2_mmu.stage2_tlb.inst_accesses            0                       # ITB inst accesses
system.cpu.itb.stage2_mmu.stage2_tlb.inst_hits            0                       # ITB inst hits
system.cpu.itb.stage2_mmu.stage2_tlb.inst_misses            0                       # ITB inst misses
system.cpu.itb.stage2_mmu.stage2_tlb.misses            0                       # DTB misses
system.cpu.itb.stage2_mmu.stage2_tlb.perms_faults            0                       # Number of TLB faults due to permissions restrictions
system.cpu.itb.stage2_mmu.stage2_tlb.prefetch_faults            0                       # Number of TLB faults due to prefetch
system.cpu.itb.stage2_mmu.stage2_tlb.read_accesses            0                       # DTB read accesses
system.cpu.itb.stage2_mmu.stage2_tlb.read_hits            0                       # DTB read hits
system.cpu.itb.stage2_mmu.stage2_tlb.read_misses            0                       # DTB read misses
system.cpu.itb.stage2_mmu.stage2_tlb.walker.walkRequestOrigin_Requested::Data            0                       # Table walker requests started/completed, data/inst
system.cpu.itb.stage2_mmu.stage2_tlb.walker.walkRequestOrigin_Requested::Inst            0                       # Table walker requests started/completed, data/inst
system.cpu.itb.stage2_mmu.stage2_tlb.walker.walkRequestOrigin_Requested::total            0                       # Table walker requests started/completed, data/inst
system.cpu.itb.stage2_mmu.stage2_tlb.walker.walkRequestOrigin_Completed::Data            0                       # Table walker requests started/completed, data/inst
system.cpu.itb.stage2_mmu.stage2_tlb.walker.walkRequestOrigin_Completed::Inst            0                       # Table walker requests started/completed, data/inst
system.cpu.itb.stage2_mmu.stage2_tlb.walker.walkRequestOrigin_Completed::total            0                       # Table walker requests started/completed, data/inst
system.cpu.itb.stage2_mmu.stage2_tlb.walker.walkRequestOrigin::total            0                       # Table walker requests started/completed, data/inst
system.cpu.itb.stage2_mmu.stage2_tlb.walker.walks            0                       # Table walker walks requested
system.cpu.itb.stage2_mmu.stage2_tlb.write_accesses            0                       # DTB write accesses
system.cpu.itb.stage2_mmu.stage2_tlb.write_hits            0                       # DTB write hits
system.cpu.itb.stage2_mmu.stage2_tlb.write_misses            0                       # DTB write misses
system.cpu.itb.walker.walkRequestOrigin_Requested::Data            0                       # Table walker requests started/completed, data/inst
system.cpu.itb.walker.walkRequestOrigin_Requested::Inst            0                       # Table walker requests started/completed, data/inst
system.cpu.itb.walker.walkRequestOrigin_Requested::total            0                       # Table walker requests started/completed, data/inst
system.cpu.itb.walker.walkRequestOrigin_Completed::Data            0                       # Table walker requests started/completed, data/inst
system.cpu.itb.walker.walkRequestOrigin_Completed::Inst            0                       # Table walker requests started/completed, data/inst
system.cpu.itb.walker.walkRequestOrigin_Completed::total            0                       # Table walker requests started/completed, data/inst
system.cpu.itb.walker.walkRequestOrigin::total            0                       # Table walker requests started/completed, data/inst
system.cpu.itb.walker.walks                         0                       # Table walker walks requested
system.cpu.itb.write_accesses                       0                       # DTB write accesses
system.cpu.itb.write_hits                           0                       # DTB write hits
system.cpu.itb.write_misses                         0                       # DTB write misses
system.cpu.numCycles                        163740290                       # number of cpu cycles simulated
system.cpu.numFetchSuspends                         0                       # Number of times Execute suspended instruction fetching
system.cpu.numWorkItemsCompleted                    0                       # number of work items this cpu completed
system.cpu.numWorkItemsStarted                      0                       # number of work items this cpu started
system.cpu.op_class_0::No_OpClass                   0      0.00%      0.00% # Class of committed instruction
system.cpu.op_class_0::IntAlu                46531400     46.44%     46.44% # Class of committed instruction
system.cpu.op_class_0::IntMult                  20720      0.02%     46.46% # Class of committed instruction
system.cpu.op_class_0::IntDiv                       0      0.00%     46.46% # Class of committed instruction
system.cpu.op_class_0::FloatAdd                     0      0.00%     46.46% # Class of committed instruction
system.cpu.op_class_0::FloatCmp                     0      0.00%     46.46% # Class of committed instruction
system.cpu.op_class_0::FloatCvt                     0      0.00%     46.46% # Class of committed instruction
system.cpu.op_class_0::FloatMult                    0      0.00%     46.46% # Class of committed instruction
system.cpu.op_class_0::FloatMultAcc                 0      0.00%     46.46% # Class of committed instruction
system.cpu.op_class_0::FloatDiv                     0      0.00%     46.46% # Class of committed instruction
system.cpu.op_class_0::FloatMisc                    0      0.00%     46.46% # Class of committed instruction
system.cpu.op_class_0::FloatSqrt                    0      0.00%     46.46% # Class of committed instruction
system.cpu.op_class_0::SimdAdd                      0      0.00%     46.46% # Class of committed instruction
system.cpu.op_class_0::SimdAddAcc                   0      0.00%     46.46% # Class of committed instruction
system.cpu.op_class_0::SimdAlu                      0      0.00%     46.46% # Class of committed instruction
system.cpu.op_class_0::SimdCmp                      0      0.00%     46.46% # Class of committed instruction
system.cpu.op_class_0::SimdCvt                      0      0.00%     46.46% # Class of committed instruction
system.cpu.op_class_0::SimdMisc                     0      0.00%     46.46% # Class of committed instruction
system.cpu.op_class_0::SimdMult                     0      0.00%     46.46% # Class of committed instruction
system.cpu.op_class_0::SimdMultAcc                  0      0.00%     46.46% # Class of committed instruction
system.cpu.op_class_0::SimdShift                    0      0.00%     46.46% # Class of committed instruction
system.cpu.op_class_0::SimdShiftAcc                 0      0.00%     46.46% # Class of committed instruction
system.cpu.op_class_0::SimdDiv                      0      0.00%     46.46% # Class of committed instruction
system.cpu.op_class_0::SimdSqrt                     0      0.00%     46.46% # Class of committed instruction
system.cpu.op_class_0::SimdFloatAdd                 0      0.00%     46.46% # Class of committed instruction
system.cpu.op_class_0::SimdFloatAlu                 0      0.00%     46.46% # Class of committed instruction
system.cpu.op_class_0::SimdFloatCmp                 0      0.00%     46.46% # Class of committed instruction
system.cpu.op_class_0::SimdFloatCvt                 0      0.00%     46.46% # Class of committed instruction
system.cpu.op_class_0::SimdFloatDiv                 0      0.00%     46.46% # Class of committed instruction
system.cpu.op_class_0::SimdFloatMisc               18      0.00%     46.46% # Class of committed instruction
system.cpu.op_class_0::SimdFloatMult                0      0.00%     46.46% # Class of committed instruction
system.cpu.op_class_0::SimdFloatMultAcc             0      0.00%     46.46% # Class of committed instruction
system.cpu.op_class_0::SimdFloatSqrt                0      0.00%     46.46% # Class of committed instruction
system.cpu.op_class_0::SimdReduceAdd                0      0.00%     46.46% # Class of committed instruction
system.cpu.op_class_0::SimdReduceAlu                0      0.00%     46.46% # Class of committed instruction
system.cpu.op_class_0::SimdReduceCmp                0      0.00%     46.46% # Class of committed instruction
system.cpu.op_class_0::SimdFloatReduceAdd            0      0.00%     46.46% # Class of committed instruction
system.cpu.op_class_0::SimdFloatReduceCmp            0      0.00%     46.46% # Class of committed instruction
system.cpu.op_class_0::SimdAes                      0      0.00%     46.46% # Class of committed instruction
system.cpu.op_class_0::SimdAesMix                   0      0.00%     46.46% # Class of committed instruction
system.cpu.op_class_0::SimdSha1Hash                 0      0.00%     46.46% # Class of committed instruction
system.cpu.op_class_0::SimdSha1Hash2                0      0.00%     46.46% # Class of committed instruction
system.cpu.op_class_0::SimdSha256Hash               0      0.00%     46.46% # Class of committed instruction
system.cpu.op_class_0::SimdSha256Hash2              0      0.00%     46.46% # Class of committed instruction
system.cpu.op_class_0::SimdShaSigma2                0      0.00%     46.46% # Class of committed instruction
system.cpu.op_class_0::SimdShaSigma3                0      0.00%     46.46% # Class of committed instruction
system.cpu.op_class_0::SimdPredAlu                  0      0.00%     46.46% # Class of committed instruction
system.cpu.op_class_0::MemRead               42693601     42.61%     89.07% # Class of committed instruction
system.cpu.op_class_0::MemWrite              10950624     10.93%    100.00% # Class of committed instruction
system.cpu.op_class_0::FloatMemRead                 0      0.00%    100.00% # Class of committed instruction
system.cpu.op_class_0::FloatMemWrite                0      0.00%    100.00% # Class of committed instruction
system.cpu.op_class_0::IprAccess                    0      0.00%    100.00% # Class of committed instruction
system.cpu.op_class_0::InstPrefetch                 0      0.00%    100.00% # Class of committed instruction
system.cpu.op_class_0::total                100196363                       # Class of committed instruction
system.cpu.tickCycles                       132572699                       # Number of cycles that the object actually ticked
system.cpu.workload.numSyscalls                    84                       # Number of system calls
system.membus.snoop_filter.hit_multi_requests            0                       # Number of requests hitting in the snoop filter with multiple (>1) holders of the requested data.
system.membus.snoop_filter.hit_multi_snoops            0                       # Number of snoops hitting in the snoop filter with multiple (>1) holders of the requested data.
system.membus.snoop_filter.hit_single_requests       114277                       # Number of requests hitting in the snoop filter with a single holder of the requested data.
system.membus.snoop_filter.hit_single_snoops            0                       # Number of snoops hitting in the snoop filter with a single holder of the requested data.
system.membus.snoop_filter.tot_requests        294389                       # Total number of requests made to the snoop filter.
system.membus.snoop_filter.tot_snoops               0                       # Total number of snoops made to the snoop filter.
system.tol2bus.snoop_filter.hit_multi_requests           75                       # Number of requests hitting in the snoop filter with multiple (>1) holders of the requested data.
system.tol2bus.snoop_filter.hit_multi_snoops            0                       # Number of snoops hitting in the snoop filter with multiple (>1) holders of the requested data.
system.tol2bus.snoop_filter.hit_single_requests       634706                       # Number of requests hitting in the snoop filter with a single holder of the requested data.
system.tol2bus.snoop_filter.hit_single_snoops          428                       # Number of snoops hitting in the snoop filter with a single holder of the requested data.
system.tol2bus.snoop_filter.tot_requests      1270878                       # Total number of requests made to the snoop filter.
system.tol2bus.snoop_filter.tot_snoops            428                       # Total number of snoops made to the snoop filter.
system.membus.pwrStateResidencyTicks::UNDEFINED  81870145000                       # Cumulative time (in ticks) in various power states
system.membus.trans_dist::ReadResp              52478                       # Transaction distribution
system.membus.trans_dist::WritebackDirty        68489                       # Transaction distribution
system.membus.trans_dist::CleanEvict            45783                       # Transaction distribution
system.membus.trans_dist::ReadExReq            127639                       # Transaction distribution
system.membus.trans_dist::ReadExResp           127639                       # Transaction distribution
system.membus.trans_dist::ReadSharedReq         52478                       # Transaction distribution
system.membus.pkt_count_system.l2.mem_side::system.mem_ctrls.port       474506                       # Packet count per connected master and slave (bytes)
system.membus.pkt_count::total                 474506                       # Packet count per connected master and slave (bytes)
system.membus.pkt_size_system.l2.mem_side::system.mem_ctrls.port     15910784                       # Cumulative packet size per connected master and slave (bytes)
system.membus.pkt_size::total                15910784                       # Cumulative packet size per connected master and slave (bytes)
system.membus.snoops                                0                       # Total snoops (count)
system.membus.snoopTraffic                          0                       # Total snoop traffic (bytes)
system.membus.snoop_fanout::samples            180117                       # Request fanout histogram
system.membus.snoop_fanout::mean                    0                       # Request fanout histogram
system.membus.snoop_fanout::stdev                   0                       # Request fanout histogram
system.membus.snoop_fanout::underflows              0      0.00%      0.00% # Request fanout histogram
system.membus.snoop_fanout::0                  180117    100.00%    100.00% # Request fanout histogram
system.membus.snoop_fanout::1                       0      0.00%    100.00% # Request fanout histogram
system.membus.snoop_fanout::overflows               0      0.00%    100.00% # Request fanout histogram
system.membus.snoop_fanout::min_value               0                       # Request fanout histogram
system.membus.snoop_fanout::max_value               0                       # Request fanout histogram
system.membus.snoop_fanout::total              180117                       # Request fanout histogram
system.membus.respLayer1.occupancy          968568000                       # Layer occupancy (ticks)
system.membus.respLayer1.utilization              1.2                       # Layer utilization (%)
system.membus.reqLayer0.occupancy           604952000                       # Layer occupancy (ticks)
system.membus.reqLayer0.utilization               0.7                       # Layer utilization (%)
system.tol2bus.pwrStateResidencyTicks::UNDEFINED  81870145000                       # Cumulative time (in ticks) in various power states
system.tol2bus.trans_dist::ReadResp            362733                       # Transaction distribution
system.tol2bus.trans_dist::WritebackDirty       648466                       # Transaction distribution
system.tol2bus.trans_dist::WritebackClean          302                       # Transaction distribution
system.tol2bus.trans_dist::CleanEvict          100636                       # Transaction distribution
system.tol2bus.trans_dist::ReadExReq           273441                       # Transaction distribution
system.tol2bus.trans_dist::ReadExResp          273440                       # Transaction distribution
system.tol2bus.trans_dist::ReadCleanReq           747                       # Transaction distribution
system.tol2bus.trans_dist::ReadSharedReq       361986                       # Transaction distribution
system.tol2bus.pkt_count_system.cpu.icache.mem_side::system.l2.cpu_side         1796                       # Packet count per connected master and slave (bytes)
system.tol2bus.pkt_count_system.cpu.dcache.mem_side::system.l2.cpu_side      1905255                       # Packet count per connected master and slave (bytes)
system.tol2bus.pkt_count::total               1907051                       # Packet count per connected master and slave (bytes)
system.tol2bus.pkt_size_system.cpu.icache.mem_side::system.l2.cpu_side        67136                       # Cumulative packet size per connected master and slave (bytes)
system.tol2bus.pkt_size_system.cpu.dcache.mem_side::system.l2.cpu_side     77785792                       # Cumulative packet size per connected master and slave (bytes)
system.tol2bus.pkt_size::total               77852928                       # Cumulative packet size per connected master and slave (bytes)
system.tol2bus.snoops                          114700                       # Total snoops (count)
system.tol2bus.snoopTraffic                   4383296                       # Total snoop traffic (bytes)
system.tol2bus.snoop_fanout::samples           750874                       # Request fanout histogram
system.tol2bus.snoop_fanout::mean            0.000673                       # Request fanout histogram
system.tol2bus.snoop_fanout::stdev           0.025925                       # Request fanout histogram
system.tol2bus.snoop_fanout::underflows             0      0.00%      0.00% # Request fanout histogram
system.tol2bus.snoop_fanout::0                 750369     99.93%     99.93% # Request fanout histogram
system.tol2bus.snoop_fanout::1                    505      0.07%    100.00% # Request fanout histogram
system.tol2bus.snoop_fanout::2                      0      0.00%    100.00% # Request fanout histogram
system.tol2bus.snoop_fanout::overflows              0      0.00%    100.00% # Request fanout histogram
system.tol2bus.snoop_fanout::min_value              0                       # Request fanout histogram
system.tol2bus.snoop_fanout::max_value              1                       # Request fanout histogram
system.tol2bus.snoop_fanout::total             750874                       # Request fanout histogram
system.tol2bus.reqLayer0.occupancy         1215718000                       # Layer occupancy (ticks)
system.tol2bus.reqLayer0.utilization              1.5                       # Layer utilization (%)
system.tol2bus.respLayer1.occupancy         953140996                       # Layer occupancy (ticks)
system.tol2bus.respLayer1.utilization             1.2                       # Layer utilization (%)
system.tol2bus.respLayer0.occupancy           1120500                       # Layer occupancy (ticks)
system.tol2bus.respLayer0.utilization             0.0                       # Layer utilization (%)
system.voltage_domain.voltage                       1                       # Voltage in Volts
system.clk_domain.clock                          1000                       # Clock period in ticks
system.l2.pwrStateResidencyTicks::UNDEFINED  81870145000                       # Cumulative time (in ticks) in various power states
system.l2.demand_hits::.cpu.inst                   81                       # number of demand (read+write) hits
system.l2.demand_hits::.cpu.data               455972                       # number of demand (read+write) hits
system.l2.demand_hits::total                   456053                       # number of demand (read+write) hits
system.l2.overall_hits::.cpu.inst                  81                       # number of overall hits
system.l2.overall_hits::.cpu.data              455972                       # number of overall hits
system.l2.overall_hits::total                  456053                       # number of overall hits
system.l2.demand_misses::.cpu.inst                666                       # number of demand (read+write) misses
system.l2.demand_misses::.cpu.data             179455                       # number of demand (read+write) misses
system.l2.demand_misses::total                 180121                       # number of demand (read+write) misses
system.l2.overall_misses::.cpu.inst               666                       # number of overall misses
system.l2.overall_misses::.cpu.data            179455                       # number of overall misses
system.l2.overall_misses::total                180121                       # number of overall misses
system.l2.demand_miss_latency::.cpu.inst     51372000                       # number of demand (read+write) miss cycles
system.l2.demand_miss_latency::.cpu.data  14855399500                       # number of demand (read+write) miss cycles
system.l2.demand_miss_latency::total      14906771500                       # number of demand (read+write) miss cycles
system.l2.overall_miss_latency::.cpu.inst     51372000                       # number of overall miss cycles
system.l2.overall_miss_latency::.cpu.data  14855399500                       # number of overall miss cycles
system.l2.overall_miss_latency::total     14906771500                       # number of overall miss cycles
system.l2.demand_accesses::.cpu.inst              747                       # number of demand (read+write) accesses
system.l2.demand_accesses::.cpu.data           635427                       # number of demand (read+write) accesses
system.l2.demand_accesses::total               636174                       # number of demand (read+write) accesses
system.l2.overall_accesses::.cpu.inst             747                       # number of overall (read+write) accesses
system.l2.overall_accesses::.cpu.data          635427                       # number of overall (read+write) accesses
system.l2.overall_accesses::total              636174                       # number of overall (read+write) accesses
system.l2.demand_miss_rate::.cpu.inst        0.891566                       # miss rate for demand accesses
system.l2.demand_miss_rate::.cpu.data        0.282416                       # miss rate for demand accesses
system.l2.demand_miss_rate::total            0.283132                       # miss rate for demand accesses
system.l2.overall_miss_rate::.cpu.inst       0.891566                       # miss rate for overall accesses
system.l2.overall_miss_rate::.cpu.data       0.282416                       # miss rate for overall accesses
system.l2.overall_miss_rate::total           0.283132                       # miss rate for overall accesses
system.l2.demand_avg_miss_latency::.cpu.inst 77135.135135                       # average overall miss latency
system.l2.demand_avg_miss_latency::.cpu.data 82780.638600                       # average overall miss latency
system.l2.demand_avg_miss_latency::total 82759.764270                       # average overall miss latency
system.l2.overall_avg_miss_latency::.cpu.inst 77135.135135                       # average overall miss latency
system.l2.overall_avg_miss_latency::.cpu.data 82780.638600                       # average overall miss latency
system.l2.overall_avg_miss_latency::total 82759.764270                       # average overall miss latency
system.l2.blocked_cycles::no_mshrs                  0                       # number of cycles access was blocked
system.l2.blocked_cycles::no_targets                0                       # number of cycles access was blocked
system.l2.blocked::no_mshrs                         0                       # number of cycles access was blocked
system.l2.blocked::no_targets                       0                       # number of cycles access was blocked
system.l2.avg_blocked_cycles::no_mshrs            nan                       # average number of cycles each access was blocked
system.l2.avg_blocked_cycles::no_targets          nan                       # average number of cycles each access was blocked
system.l2.writebacks::.writebacks               68489                       # number of writebacks
system.l2.writebacks::total                     68489                       # number of writebacks
system.l2.demand_mshr_hits::.cpu.data               4                       # number of demand (read+write) MSHR hits
system.l2.demand_mshr_hits::total                   4                       # number of demand (read+write) MSHR hits
system.l2.overall_mshr_hits::.cpu.data              4                       # number of overall MSHR hits
system.l2.overall_mshr_hits::total                  4                       # number of overall MSHR hits
system.l2.demand_mshr_misses::.cpu.inst           666                       # number of demand (read+write) MSHR misses
system.l2.demand_mshr_misses::.cpu.data        179451                       # number of demand (read+write) MSHR misses
system.l2.demand_mshr_misses::total            180117                       # number of demand (read+write) MSHR misses
system.l2.overall_mshr_misses::.cpu.inst          666                       # number of overall MSHR misses
system.l2.overall_mshr_misses::.cpu.data       179451                       # number of overall MSHR misses
system.l2.overall_mshr_misses::total           180117                       # number of overall MSHR misses
system.l2.demand_mshr_miss_latency::.cpu.inst     44712000                       # number of demand (read+write) MSHR miss cycles
system.l2.demand_mshr_miss_latency::.cpu.data  13060613500                       # number of demand (read+write) MSHR miss cycles
system.l2.demand_mshr_miss_latency::total  13105325500                       # number of demand (read+write) MSHR miss cycles
system.l2.overall_mshr_miss_latency::.cpu.inst     44712000                       # number of overall MSHR miss cycles
system.l2.overall_mshr_miss_latency::.cpu.data  13060613500                       # number of overall MSHR miss cycles
system.l2.overall_mshr_miss_latency::total  13105325500                       # number of overall MSHR miss cycles
system.l2.demand_mshr_miss_rate::.cpu.inst     0.891566                       # mshr miss rate for demand accesses
system.l2.demand_mshr_miss_rate::.cpu.data     0.282410                       # mshr miss rate for demand accesses
system.l2.demand_mshr_miss_rate::total       0.283125                       # mshr miss rate for demand accesses
system.l2.overall_mshr_miss_rate::.cpu.inst     0.891566                       # mshr miss rate for overall accesses
system.l2.overall_mshr_miss_rate::.cpu.data     0.282410                       # mshr miss rate for overall accesses
system.l2.overall_mshr_miss_rate::total      0.283125                       # mshr miss rate for overall accesses
system.l2.demand_avg_mshr_miss_latency::.cpu.inst 67135.135135                       # average overall mshr miss latency
system.l2.demand_avg_mshr_miss_latency::.cpu.data 72780.945773                       # average overall mshr miss latency
system.l2.demand_avg_mshr_miss_latency::total 72760.069843                       # average overall mshr miss latency
system.l2.overall_avg_mshr_miss_latency::.cpu.inst 67135.135135                       # average overall mshr miss latency
system.l2.overall_avg_mshr_miss_latency::.cpu.data 72780.945773                       # average overall mshr miss latency
system.l2.overall_avg_mshr_miss_latency::total 72760.069843                       # average overall mshr miss latency
system.l2.replacements                         114700                       # number of replacements
system.l2.WritebackDirty_hits::.writebacks       579977                       # number of WritebackDirty hits
system.l2.WritebackDirty_hits::total           579977                       # number of WritebackDirty hits
system.l2.WritebackDirty_accesses::.writebacks       579977                       # number of WritebackDirty accesses(hits+misses)
system.l2.WritebackDirty_accesses::total       579977                       # number of WritebackDirty accesses(hits+misses)
system.l2.WritebackClean_hits::.writebacks          293                       # number of WritebackClean hits
system.l2.WritebackClean_hits::total              293                       # number of WritebackClean hits
system.l2.WritebackClean_accesses::.writebacks          293                       # number of WritebackClean accesses(hits+misses)
system.l2.WritebackClean_accesses::total          293                       # number of WritebackClean accesses(hits+misses)
system.l2.ReadExReq_hits::.cpu.data            145802                       # number of ReadExReq hits
system.l2.ReadExReq_hits::total                145802                       # number of ReadExReq hits
system.l2.ReadExReq_misses::.cpu.data          127639                       # number of ReadExReq misses
system.l2.ReadExReq_misses::total              127639                       # number of ReadExReq misses
system.l2.ReadExReq_miss_latency::.cpu.data  10836300500                       # number of ReadExReq miss cycles
system.l2.ReadExReq_miss_latency::total   10836300500                       # number of ReadExReq miss cycles
system.l2.ReadExReq_accesses::.cpu.data        273441                       # number of ReadExReq accesses(hits+misses)
system.l2.ReadExReq_accesses::total            273441                       # number of ReadExReq accesses(hits+misses)
system.l2.ReadExReq_miss_rate::.cpu.data     0.466788                       # miss rate for ReadExReq accesses
system.l2.ReadExReq_miss_rate::total         0.466788                       # miss rate for ReadExReq accesses
system.l2.ReadExReq_avg_miss_latency::.cpu.data 84898.036650                       # average ReadExReq miss latency
system.l2.ReadExReq_avg_miss_latency::total 84898.036650                       # average ReadExReq miss latency
system.l2.ReadExReq_mshr_misses::.cpu.data       127639                       # number of ReadExReq MSHR misses
system.l2.ReadExReq_mshr_misses::total         127639                       # number of ReadExReq MSHR misses
system.l2.ReadExReq_mshr_miss_latency::.cpu.data   9559910500                       # number of ReadExReq MSHR miss cycles
system.l2.ReadExReq_mshr_miss_latency::total   9559910500                       # number of ReadExReq MSHR miss cycles
system.l2.ReadExReq_mshr_miss_rate::.cpu.data     0.466788                       # mshr miss rate for ReadExReq accesses
system.l2.ReadExReq_mshr_miss_rate::total     0.466788                       # mshr miss rate for ReadExReq accesses
system.l2.ReadExReq_avg_mshr_miss_latency::.cpu.data 74898.036650                       # average ReadExReq mshr miss latency
system.l2.ReadExReq_avg_mshr_miss_latency::total 74898.036650                       # average ReadExReq mshr miss latency
system.l2.ReadCleanReq_hits::.cpu.inst             81                       # number of ReadCleanReq hits
system.l2.ReadCleanReq_hits::total                 81                       # number of ReadCleanReq hits
system.l2.ReadCleanReq_misses::.cpu.inst          666                       # number of ReadCleanReq misses
system.l2.ReadCleanReq_misses::total              666                       # number of ReadCleanReq misses
system.l2.ReadCleanReq_miss_latency::.cpu.inst     51372000                       # number of ReadCleanReq miss cycles
system.l2.ReadCleanReq_miss_latency::total     51372000                       # number of ReadCleanReq miss cycles
system.l2.ReadCleanReq_accesses::.cpu.inst          747                       # number of ReadCleanReq accesses(hits+misses)
system.l2.ReadCleanReq_accesses::total            747                       # number of ReadCleanReq accesses(hits+misses)
system.l2.ReadCleanReq_miss_rate::.cpu.inst     0.891566                       # miss rate for ReadCleanReq accesses
system.l2.ReadCleanReq_miss_rate::total      0.891566                       # miss rate for ReadCleanReq accesses
system.l2.ReadCleanReq_avg_miss_latency::.cpu.inst 77135.135135                       # average ReadCleanReq miss latency
system.l2.ReadCleanReq_avg_miss_latency::total 77135.135135                       # average ReadCleanReq miss latency
system.l2.ReadCleanReq_mshr_misses::.cpu.inst          666                       # number of ReadCleanReq MSHR misses
system.l2.ReadCleanReq_mshr_misses::total          666                       # number of ReadCleanReq MSHR misses
system.l2.ReadCleanReq_mshr_miss_latency::.cpu.inst     44712000                       # number of ReadCleanReq MSHR miss cycles
system.l2.ReadCleanReq_mshr_miss_latency::total     44712000                       # number of ReadCleanReq MSHR miss cycles
system.l2.ReadCleanReq_mshr_miss_rate::.cpu.inst     0.891566                       # mshr miss rate for ReadCleanReq accesses
system.l2.ReadCleanReq_mshr_miss_rate::total     0.891566                       # mshr miss rate for ReadCleanReq accesses
system.l2.ReadCleanReq_avg_mshr_miss_latency::.cpu.inst 67135.135135                       # average ReadCleanReq mshr miss latency
system.l2.ReadCleanReq_avg_mshr_miss_latency::total 67135.135135                       # average ReadCleanReq mshr miss latency
system.l2.ReadSharedReq_hits::.cpu.data        310170                       # number of ReadSharedReq hits
system.l2.ReadSharedReq_hits::total            310170                       # number of ReadSharedReq hits
system.l2.ReadSharedReq_misses::.cpu.data        51816                       # number of ReadSharedReq misses
system.l2.ReadSharedReq_misses::total           51816                       # number of ReadSharedReq misses
system.l2.ReadSharedReq_miss_latency::.cpu.data   4019099000                       # number of ReadSharedReq miss cycles
system.l2.ReadSharedReq_miss_latency::total   4019099000                       # number of ReadSharedReq miss cycles
system.l2.ReadSharedReq_accesses::.cpu.data       361986                       # number of ReadSharedReq accesses(hits+misses)
system.l2.ReadSharedReq_accesses::total        361986                       # number of ReadSharedReq accesses(hits+misses)
system.l2.ReadSharedReq_miss_rate::.cpu.data     0.143144                       # miss rate for ReadSharedReq accesses
system.l2.ReadSharedReq_miss_rate::total     0.143144                       # miss rate for ReadSharedReq accesses
system.l2.ReadSharedReq_avg_miss_latency::.cpu.data 77564.825537                       # average ReadSharedReq miss latency
system.l2.ReadSharedReq_avg_miss_latency::total 77564.825537                       # average ReadSharedReq miss latency
system.l2.ReadSharedReq_mshr_hits::.cpu.data            4                       # number of ReadSharedReq MSHR hits
system.l2.ReadSharedReq_mshr_hits::total            4                       # number of ReadSharedReq MSHR hits
system.l2.ReadSharedReq_mshr_misses::.cpu.data        51812                       # number of ReadSharedReq MSHR misses
system.l2.ReadSharedReq_mshr_misses::total        51812                       # number of ReadSharedReq MSHR misses
system.l2.ReadSharedReq_mshr_miss_latency::.cpu.data   3500703000                       # number of ReadSharedReq MSHR miss cycles
system.l2.ReadSharedReq_mshr_miss_latency::total   3500703000                       # number of ReadSharedReq MSHR miss cycles
system.l2.ReadSharedReq_mshr_miss_rate::.cpu.data     0.143133                       # mshr miss rate for ReadSharedReq accesses
system.l2.ReadSharedReq_mshr_miss_rate::total     0.143133                       # mshr miss rate for ReadSharedReq accesses
system.l2.ReadSharedReq_avg_mshr_miss_latency::.cpu.data 67565.486760                       # average ReadSharedReq mshr miss latency
system.l2.ReadSharedReq_avg_mshr_miss_latency::total 67565.486760                       # average ReadSharedReq mshr miss latency
system.l2.tags.pwrStateResidencyTicks::UNDEFINED  81870145000                       # Cumulative time (in ticks) in various power states
system.l2.tags.tagsinuse                 63172.381584                       # Cycle average of tags in use
system.l2.tags.total_refs                     1270799                       # Total number of references to valid blocks.
system.l2.tags.sampled_refs                    180236                       # Sample count of references to valid blocks.
system.l2.tags.avg_refs                      7.050750                       # Average number of references to valid blocks.
system.l2.tags.warmup_cycle                     77000                       # Cycle when the warmup percentage was hit.
system.l2.tags.occ_blocks::.writebacks      62.489651                       # Average occupied blocks per requestor
system.l2.tags.occ_blocks::.cpu.inst       125.786894                       # Average occupied blocks per requestor
system.l2.tags.occ_blocks::.cpu.data     62984.105038                       # Average occupied blocks per requestor
system.l2.tags.occ_percent::.writebacks      0.000954                       # Average percentage of cache occupancy
system.l2.tags.occ_percent::.cpu.inst        0.001919                       # Average percentage of cache occupancy
system.l2.tags.occ_percent::.cpu.data        0.961061                       # Average percentage of cache occupancy
system.l2.tags.occ_percent::total            0.963934                       # Average percentage of cache occupancy
system.l2.tags.occ_task_id_blocks::1024         65536                       # Occupied blocks per task id
system.l2.tags.age_task_id_blocks_1024::2            1                       # Occupied blocks per task id
system.l2.tags.age_task_id_blocks_1024::3         5415                       # Occupied blocks per task id
system.l2.tags.age_task_id_blocks_1024::4        60120                       # Occupied blocks per task id
system.l2.tags.occ_task_id_percent::1024            1                       # Percentage of cache occupancy per task id
system.l2.tags.tag_accesses                  20513084                       # Number of tag accesses
system.l2.tags.data_accesses                 20513084                       # Number of data accesses
system.cpu_voltage_domain.voltage                   1                       # Voltage in Volts
system.mem_ctrls.pwrStateResidencyTicks::UNDEFINED  81870145000                       # Cumulative time (in ticks) in various power states
system.mem_ctrls.bytes_read::.cpu.inst          42624                       # Number of bytes read from this memory
system.mem_ctrls.bytes_read::.cpu.data       11484864                       # Number of bytes read from this memory
system.mem_ctrls.bytes_read::total           11527488                       # Number of bytes read from this memory
system.mem_ctrls.bytes_inst_read::.cpu.inst        42624                       # Number of instructions bytes read from this memory
system.mem_ctrls.bytes_inst_read::total         42624                       # Number of instructions bytes read from this memory
system.mem_ctrls.bytes_written::.writebacks      4383296                       # Number of bytes written to this memory
system.mem_ctrls.bytes_written::total         4383296                       # Number of bytes written to this memory
system.mem_ctrls.num_reads::.cpu.inst             666                       # Number of read requests responded to by this memory
system.mem_ctrls.num_reads::.cpu.data          179451                       # Number of read requests responded to by this memory
system.mem_ctrls.num_reads::total              180117                       # Number of read requests responded to by this memory
system.mem_ctrls.num_writes::.writebacks        68489                       # Number of write requests responded to by this memory
system.mem_ctrls.num_writes::total              68489                       # Number of write requests responded to by this memory
system.mem_ctrls.bw_read::.cpu.inst            520629                       # Total read bandwidth from this memory (bytes/s)
system.mem_ctrls.bw_read::.cpu.data         140281466                       # Total read bandwidth from this memory (bytes/s)
system.mem_ctrls.bw_read::total             140802096                       # Total read bandwidth from this memory (bytes/s)
system.mem_ctrls.bw_inst_read::.cpu.inst       520629                       # Instruction read bandwidth from this memory (bytes/s)
system.mem_ctrls.bw_inst_read::total           520629                       # Instruction read bandwidth from this memory (bytes/s)
system.mem_ctrls.bw_write::.writebacks       53539614                       # Write bandwidth from this memory (bytes/s)
system.mem_ctrls.bw_write::total             53539614                       # Write bandwidth from this memory (bytes/s)
system.mem_ctrls.bw_total::.writebacks       53539614                       # Total bandwidth to/from this memory (bytes/s)
system.mem_ctrls.bw_total::.cpu.inst           520629                       # Total bandwidth to/from this memory (bytes/s)
system.mem_ctrls.bw_total::.cpu.data        140281466                       # Total bandwidth to/from this memory (bytes/s)
system.mem_ctrls.bw_total::total            194341710                       # Total bandwidth to/from this memory (bytes/s)
system.mem_ctrls.avgPriority_.writebacks::samples     68489.00                       # Average QoS priority value for accepted requests
system.mem_ctrls.avgPriority_.cpu.inst::samples       666.00                       # Average QoS priority value for accepted requests
system.mem_ctrls.avgPriority_.cpu.data::samples    179450.00                       # Average QoS priority value for accepted requests
system.mem_ctrls.priorityMinLatency      0.000000018750                       # per QoS priority minimum request to response latency (s)
system.mem_ctrls.priorityMaxLatency      0.002821144500                       # per QoS priority maximum request to response latency (s)
system.mem_ctrls.numReadWriteTurnArounds         4110                       # Number of turnarounds from READ to WRITE
system.mem_ctrls.numWriteReadTurnArounds         4110                       # Number of turnarounds from WRITE to READ
system.mem_ctrls.numStayReadState              442774                       # Number of times bus staying in READ state
system.mem_ctrls.numStayWriteState              64455                       # Number of times bus staying in WRITE state
system.mem_ctrls.readReqs                      180117                       # Number of read requests accepted
system.mem_ctrls.writeReqs                      68489                       # Number of write requests accepted
system.mem_ctrls.readBursts                    180117                       # Number of DRAM read bursts, including those serviced by the write queue
system.mem_ctrls.writeBursts                    68489                       # Number of DRAM write bursts, including those merged in the write queue
system.mem_ctrls.servicedByWrQ                      1                       # Number of DRAM read bursts serviced by the write queue
system.mem_ctrls.mergedWrBursts                     0                       # Number of DRAM write bursts merged with an existing one
system.mem_ctrls.neitherReadNorWriteReqs            0                       # Number of requests that are neither read nor write
system.mem_ctrls.perBankRdBursts::0             11400                       # Per bank write bursts
system.mem_ctrls.perBankRdBursts::1             11440                       # Per bank write bursts
system.mem_ctrls.perBankRdBursts::2             11429                       # Per bank write bursts
system.mem_ctrls.perBankRdBursts::3             11265                       # Per bank write bursts
system.mem_ctrls.perBankRdBursts::4             11182                       # Per bank write bursts
system.mem_ctrls.perBankRdBursts::5             11098                       # Per bank write bursts
system.mem_ctrls.perBankRdBursts::6             11089                       # Per bank write bursts
system.mem_ctrls.perBankRdBursts::7             11280                       # Per bank write bursts
system.mem_ctrls.perBankRdBursts::8             11317                       # Per bank write bursts
system.mem_ctrls.perBankRdBursts::9             11273                       # Per bank write bursts
system.mem_ctrls.perBankRdBursts::10            11289                       # Per bank write bursts
system.mem_ctrls.perBankRdBursts::11            11257                       # Per bank write bursts
system.mem_ctrls.perBankRdBursts::12            11255                       # Per bank write bursts
system.mem_ctrls.perBankRdBursts::13            11175                       # Per bank write bursts
system.mem_ctrls.perBankRdBursts::14            11158                       # Per bank write bursts
system.mem_ctrls.perBankRdBursts::15            11209                       # Per bank write bursts
system.mem_ctrls.perBankWrBursts::0              4352                       # Per bank write bursts
system.mem_ctrls.perBankWrBursts::1              4354                       # Per bank write bursts
system.mem_ctrls.perBankWrBursts::2              4389                       # Per bank write bursts
system.mem_ctrls.perBankWrBursts::3              4365                       # Per bank write bursts
system.mem_ctrls.perBankWrBursts::4              4299                       # Per bank write bursts
system.mem_ctrls.perBankWrBursts::5              4270                       # Per bank write bursts
system.mem_ctrls.perBankWrBursts::6              4255                       # Per bank write bursts
system.mem_ctrls.perBankWrBursts::7              4348                       # Per bank write bursts
system.mem_ctrls.perBankWrBursts::8              4262                       # Per bank write bursts
system.mem_ctrls.perBankWrBursts::9              4223                       # Per bank write bursts
system.mem_ctrls.perBankWrBursts::10             4221                       # Per bank write bursts
system.mem_ctrls.perBankWrBursts::11             4224                       # Per bank write bursts
system.mem_ctrls.perBankWrBursts::12             4193                       # Per bank write bursts
system.mem_ctrls.perBankWrBursts::13             4222                       # Per bank write bursts
system.mem_ctrls.perBankWrBursts::14             4223                       # Per bank write bursts
system.mem_ctrls.perBankWrBursts::15             4265                       # Per bank write bursts
system.mem_ctrls.avgRdQLen                       1.08                       # Average read queue length when enqueuing
system.mem_ctrls.avgWrQLen                      24.59                       # Average write queue length when enqueuing
system.mem_ctrls.totQLat                   2296263500                       # Total ticks spent queuing
system.mem_ctrls.totBusLat                  900580000                       # Total ticks spent in databus transfers
system.mem_ctrls.totMemAccLat              5673438500                       # Total ticks spent from burst creation until serviced by the DRAM
system.mem_ctrls.avgQLat                     12748.80                       # Average queueing delay per DRAM burst
system.mem_ctrls.avgBusLat                    5000.00                       # Average bus latency per DRAM burst
system.mem_ctrls.avgMemAccLat                31498.80                       # Average memory access latency per DRAM burst
system.mem_ctrls.numRdRetry                         0                       # Number of times read queue was full causing retry
system.mem_ctrls.numWrRetry                         0                       # Number of times write queue was full causing retry
system.mem_ctrls.readRowHits                   130940                       # Number of row buffer hits during reads
system.mem_ctrls.writeRowHits                   50168                       # Number of row buffer hits during writes
system.mem_ctrls.readRowHitRate                 72.70                       # Row buffer hit rate for reads
system.mem_ctrls.writeRowHitRate                73.25                       # Row buffer hit rate for writes
system.mem_ctrls.readPktSize::0                     0                       # Read request sizes (log2)
system.mem_ctrls.readPktSize::1                     0                       # Read request sizes (log2)
system.mem_ctrls.readPktSize::2                     0                       # Read request sizes (log2)
system.mem_ctrls.readPktSize::3                     0                       # Read request sizes (log2)
system.mem_ctrls.readPktSize::4                     0                       # Read request sizes (log2)
system.mem_ctrls.readPktSize::5                     0                       # Read request sizes (log2)
system.mem_ctrls.readPktSize::6                180117                       # Read request sizes (log2)
system.mem_ctrls.writePktSize::0                    0                       # Write request sizes (log2)
system.mem_ctrls.writePktSize::1                    0                       # Write request sizes (log2)
system.mem_ctrls.writePktSize::2                    0                       # Write request sizes (log2)
system.mem_ctrls.writePktSize::3                    0                       # Write request sizes (log2)
system.mem_ctrls.writePktSize::4                    0                       # Write request sizes (log2)
system.mem_ctrls.writePktSize::5                    0                       # Write request sizes (log2)
system.mem_ctrls.writePktSize::6                68489                       # Write request sizes (log2)
system.mem_ctrls.rdQLenPdf::0                  121608                       # What read queue length does an incoming req see
system.mem_ctrls.rdQLenPdf::1                   55869                       # What read queue length does an incoming req see
system.mem_ctrls.rdQLenPdf::2                    2332                       # What read queue length does an incoming req see
system.mem_ctrls.rdQLenPdf::3                     306                       # What read queue length does an incoming req see
system.mem_ctrls.rdQLenPdf::4                       1                       # What read queue length does an incoming req see
system.mem_ctrls.rdQLenPdf::5                       0                       # What read queue length does an incoming req see
system.mem_ctrls.rdQLenPdf::6                       0                       # What read queue length does an incoming req see
system.mem_ctrls.rdQLenPdf::7                       0                       # What read queue length does an incoming req see
system.mem_ctrls.rdQLenPdf::8                       0                       # What read queue length does an incoming req see
system.mem_ctrls.rdQLenPdf::9                       0                       # What read queue length does an incoming req see
system.mem_ctrls.rdQLenPdf::10                      0                       # What read queue length does an incoming req see
system.mem_ctrls.rdQLenPdf::11                      0                       # What read queue length does an incoming req see
system.mem_ctrls.rdQLenPdf::12                      0                       # What read queue length does an incoming req see
system.mem_ctrls.rdQLenPdf::13                      0                       # What read queue length does an incoming req see
system.mem_ctrls.rdQLenPdf::14                      0                       # What read queue length does an incoming req see
system.mem_ctrls.rdQLenPdf::15                      0                       # What read queue length does an incoming req see
system.mem_ctrls.rdQLenPdf::16                      0                       # What read queue length does an incoming req see
system.mem_ctrls.rdQLenPdf::17                      0                       # What read queue length does an incoming req see
system.mem_ctrls.rdQLenPdf::18                      0                       # What read queue length does an incoming req see
system.mem_ctrls.rdQLenPdf::19                      0                       # What read queue length does an incoming req see
system.mem_ctrls.rdQLenPdf::20                      0                       # What read queue length does an incoming req see
system.mem_ctrls.rdQLenPdf::21                      0                       # What read queue length does an incoming req see
system.mem_ctrls.rdQLenPdf::22                      0                       # What read queue length does an incoming req see
system.mem_ctrls.rdQLenPdf::23                      0                       # What read queue length does an incoming req see
system.mem_ctrls.rdQLenPdf::24                      0                       # What read queue length does an incoming req see
system.mem_ctrls.rdQLenPdf::25                      0                       # What read queue length does an incoming req see
system.mem_ctrls.rdQLenPdf::26                      0                       # What read queue length does an incoming req see
system.mem_ctrls.rdQLenPdf::27                      0                       # What read queue length does an incoming req see
system.mem_ctrls.rdQLenPdf::28                      0                       # What read queue length does an incoming req see
system.mem_ctrls.rdQLenPdf::29                      0                       # What read queue length does an incoming req see
system.mem_ctrls.rdQLenPdf::30                      0                       # What read queue length does an incoming req see
system.mem_ctrls.rdQLenPdf::31                      0                       # What read queue length does an incoming req see
system.mem_ctrls.wrQLenPdf::0                       1                       # What write queue length does an incoming req see
system.mem_ctrls.wrQLenPdf::1                       1                       # What write queue length does an incoming req see
system.mem_ctrls.wrQLenPdf::2                       1                       # What write queue length does an incoming req see
system.mem_ctrls.wrQLenPdf::3                       1                       # What write queue length does an incoming req see
system.mem_ctrls.wrQLenPdf::4                       1                       # What write queue length does an incoming req see
system.mem_ctrls.wrQLenPdf::5                       1                       # What write queue length does an incoming req see
system.mem_ctrls.wrQLenPdf::6                       1                       # What write queue length does an incoming req see
system.mem_ctrls.wrQLenPdf::7                       1                       # What write queue length does an incoming req see
system.mem_ctrls.wrQLenPdf::8                       1                       # What write queue length does an incoming req see
system.mem_ctrls.wrQLenPdf::9                       1                       # What write queue length does an incoming req see
system.mem_ctrls.wrQLenPdf::10                      1                       # What write queue length does an incoming req see
system.mem_ctrls.wrQLenPdf::11                      1                       # What write queue length does an incoming req see
system.mem_ctrls.wrQLenPdf::12                      1                       # What write queue length does an incoming req see
system.mem_ctrls.wrQLenPdf::13                      1                       # What write queue length does an incoming req see
system.mem_ctrls.wrQLenPdf::14                      1                       # What write queue length does an incoming req see
system.mem_ctrls.wrQLenPdf::15                   1324                       # What write queue length does an incoming req see
system.mem_ctrls.wrQLenPdf::16                   1333                       # What write queue length does an incoming req see
system.mem_ctrls.wrQLenPdf::17                   3165                       # What write queue length does an incoming req see
system.mem_ctrls.wrQLenPdf::18                   4060                       # What write queue length does an incoming req see
system.mem_ctrls.wrQLenPdf::19                   4127                       # What write queue length does an incoming req see
system.mem_ctrls.wrQLenPdf::20                   4210                       # What write queue length does an incoming req see
system.mem_ctrls.wrQLenPdf::21                   4140                       # What write queue length does an incoming req see
system.mem_ctrls.wrQLenPdf::22                   4207                       # What write queue length does an incoming req see
system.mem_ctrls.wrQLenPdf::23                   4184                       # What write queue length does an incoming req see
system.mem_ctrls.wrQLenPdf::24                   4130                       # What write queue length does an incoming req see
system.mem_ctrls.wrQLenPdf::25                   4228                       # What write queue length does an incoming req see
system.mem_ctrls.wrQLenPdf::26                   4179                       # What write queue length does an incoming req see
system.mem_ctrls.wrQLenPdf::27                   4137                       # What write queue length does an incoming req see
system.mem_ctrls.wrQLenPdf::28                   4531                       # What write queue length does an incoming req see
system.mem_ctrls.wrQLenPdf::29                   4140                       # What write queue length does an incoming req see
system.mem_ctrls.wrQLenPdf::30                   4124                       # What write queue length does an incoming req see
system.mem_ctrls.wrQLenPdf::31                   4135                       # What write queue length does an incoming req see
system.mem_ctrls.wrQLenPdf::32                   4116                       # What write queue length does an incoming req see
system.mem_ctrls.wrQLenPdf::33                      3                       # What write queue length does an incoming req see
system.mem_ctrls.wrQLenPdf::34                      1                       # What write queue length does an incoming req see
system.mem_ctrls.wrQLenPdf::35                      0                       # What write queue length does an incoming req see
system.mem_ctrls.wrQLenPdf::36                      0                       # What write queue length does an incoming req see
system.mem_ctrls.wrQLenPdf::37                      0                       # What write queue length does an incoming req see
system.mem_ctrls.wrQLenPdf::38                      0                       # What write queue length does an incoming req see
system.mem_ctrls.wrQLenPdf::39                      0                       # What write queue length does an incoming req see
system.mem_ctrls.wrQLenPdf::40                      0                       # What write queue length does an incoming req see
system.mem_ctrls.wrQLenPdf::41                      0                       # What write queue length does an incoming req see
system.mem_ctrls.wrQLenPdf::42                      0                       # What write queue length does an incoming req see
system.mem_ctrls.wrQLenPdf::43                      0                       # What write queue length does an incoming req see
system.mem_ctrls.wrQLenPdf::44                      0                       # What write queue length does an incoming req see
system.mem_ctrls.wrQLenPdf::45                      0                       # What write queue length does an incoming req see
system.mem_ctrls.wrQLenPdf::46                      0                       # What write queue length does an incoming req see
system.mem_ctrls.wrQLenPdf::47                      0                       # What write queue length does an incoming req see
system.mem_ctrls.wrQLenPdf::48                      0                       # What write queue length does an incoming req see
system.mem_ctrls.wrQLenPdf::49                      0                       # What write queue length does an incoming req see
system.mem_ctrls.wrQLenPdf::50                      0                       # What write queue length does an incoming req see
system.mem_ctrls.wrQLenPdf::51                      0                       # What write queue length does an incoming req see
system.mem_ctrls.wrQLenPdf::52                      0                       # What write queue length does an incoming req see
system.mem_ctrls.wrQLenPdf::53                      0                       # What write queue length does an incoming req see
system.mem_ctrls.wrQLenPdf::54                      0                       # What write queue length does an incoming req see
system.mem_ctrls.wrQLenPdf::55                      0                       # What write queue length does an incoming req see
system.mem_ctrls.wrQLenPdf::56                      0                       # What write queue length does an incoming req see
system.mem_ctrls.wrQLenPdf::57                      0                       # What write queue length does an incoming req see
system.mem_ctrls.wrQLenPdf::58                      0                       # What write queue length does an incoming req see
system.mem_ctrls.wrQLenPdf::59                      0                       # What write queue length does an incoming req see
system.mem_ctrls.wrQLenPdf::60                      0                       # What write queue length does an incoming req see
system.mem_ctrls.wrQLenPdf::61                      0                       # What write queue length does an incoming req see
system.mem_ctrls.wrQLenPdf::62                      0                       # What write queue length does an incoming req see
system.mem_ctrls.wrQLenPdf::63                      0                       # What write queue length does an incoming req see
system.mem_ctrls.bytesPerActivate::samples        67473                       # Bytes accessed per row activation
system.mem_ctrls.bytesPerActivate::mean    235.785929                       # Bytes accessed per row activation
system.mem_ctrls.bytesPerActivate::gmean   131.686344                       # Bytes accessed per row activation
system.mem_ctrls.bytesPerActivate::stdev   288.167741                       # Bytes accessed per row activation
system.mem_ctrls.bytesPerActivate::0-127        40222     59.61%     59.61% # Bytes accessed per row activation
system.mem_ctrls.bytesPerActivate::128-255         8178     12.12%     71.73% # Bytes accessed per row activation
system.mem_ctrls.bytesPerActivate::256-383         1968      2.92%     74.65% # Bytes accessed per row activation
system.mem_ctrls.bytesPerActivate::384-511         1462      2.17%     76.82% # Bytes accessed per row activation
system.mem_ctrls.bytesPerActivate::512-639         8811     13.06%     89.87% # Bytes accessed per row activation
system.mem_ctrls.bytesPerActivate::640-767         1128      1.67%     91.55% # Bytes accessed per row activation
system.mem_ctrls.bytesPerActivate::768-895          376      0.56%     92.10% # Bytes accessed per row activation
system.mem_ctrls.bytesPerActivate::896-1023          365      0.54%     92.64% # Bytes accessed per row activation
system.mem_ctrls.bytesPerActivate::1024-1151         4963      7.36%    100.00% # Bytes accessed per row activation
system.mem_ctrls.bytesPerActivate::total        67473                       # Bytes accessed per row activation
system.mem_ctrls.rdPerTurnAround::samples         4110                       # Reads before turning the bus around for writes
system.mem_ctrls.rdPerTurnAround::mean      43.773479                       # Reads before turning the bus around for writes
system.mem_ctrls.rdPerTurnAround::gmean     29.048716                       # Reads before turning the bus around for writes
system.mem_ctrls.rdPerTurnAround::stdev     91.174388                       # Reads before turning the bus around for writes
system.mem_ctrls.rdPerTurnAround::0-255          3861     93.94%     93.94% # Reads before turning the bus around for writes
system.mem_ctrls.rdPerTurnAround::256-511          248      6.03%     99.98% # Reads before turning the bus around for writes
system.mem_ctrls.rdPerTurnAround::4352-4607            1      0.02%    100.00% # Reads before turning the bus around for writes
system.mem_ctrls.rdPerTurnAround::total          4110                       # Reads before turning the bus around for writes
system.mem_ctrls.wrPerTurnAround::samples         4110                       # Writes before turning the bus around for reads
system.mem_ctrls.wrPerTurnAround::mean      16.658151                       # Writes before turning the bus around for reads
system.mem_ctrls.wrPerTurnAround::gmean     16.631365                       # Writes before turning the bus around for reads
system.mem_ctrls.wrPerTurnAround::stdev      0.959220                       # Writes before turning the bus around for reads
system.mem_ctrls.wrPerTurnAround::16             2777     67.57%     67.57% # Writes before turning the bus around for reads
system.mem_ctrls.wrPerTurnAround::17                9      0.22%     67.79% # Writes before turning the bus around for reads
system.mem_ctrls.wrPerTurnAround::18             1283     31.22%     99.00% # Writes before turning the bus around for reads
[...]
system.cpu.icache.ReadReq_mshr_misses::.cpu.inst          747                       # number of ReadReq MSHR misses
system.cpu.icache.ReadReq_mshr_misses::total          747                       # number of ReadReq MSHR misses
system.cpu.icache.ReadReq_mshr_miss_latency::.cpu.inst     53363500                       # number of ReadReq MSHR miss cycles
system.cpu.icache.ReadReq_mshr_miss_latency::total     53363500                       # number of ReadReq MSHR miss cycles
system.cpu.icache.ReadReq_mshr_miss_rate::.cpu.inst     0.000077                       # mshr miss rate for ReadReq accesses
system.cpu.icache.ReadReq_mshr_miss_rate::total     0.000077                       # mshr miss rate for ReadReq accesses
system.cpu.icache.ReadReq_avg_mshr_miss_latency::.cpu.inst 71437.081660                       # average ReadReq mshr miss latency
system.cpu.icache.ReadReq_avg_mshr_miss_latency::total 71437.081660                       # average ReadReq mshr miss latency
system.cpu.icache.tags.pwrStateResidencyTicks::UNDEFINED  81870145000                       # Cumulative time (in ticks) in various power states
system.cpu.icache.tags.tagsinuse           360.417314                       # Cycle average of tags in use
system.cpu.icache.tags.total_refs             9663439                       # Total number of references to valid blocks.
system.cpu.icache.tags.sampled_refs               747                       # Sample count of references to valid blocks.
system.cpu.icache.tags.avg_refs          12936.330656                       # Average number of references to valid blocks.
system.cpu.icache.tags.warmup_cycle             87500                       # Cycle when the warmup percentage was hit.
system.cpu.icache.tags.occ_blocks::.cpu.inst   360.417314                       # Average occupied blocks per requestor
system.cpu.icache.tags.occ_percent::.cpu.inst     0.703940                       # Average percentage of cache occupancy
system.cpu.icache.tags.occ_percent::total     0.703940                       # Average percentage of cache occupancy
system.cpu.icache.tags.occ_task_id_blocks::1024          445                       # Occupied blocks per task id
system.cpu.icache.tags.age_task_id_blocks_1024::3          106                       # Occupied blocks per task id
system.cpu.icache.tags.age_task_id_blocks_1024::4          339                       # Occupied blocks per task id
system.cpu.icache.tags.occ_task_id_percent::1024     0.869141                       # Percentage of cache occupancy per task id
system.cpu.icache.tags.tag_accesses          19327625                       # Number of tag accesses
system.cpu.icache.tags.data_accesses         19327625                       # Number of data accesses
system.cpu.dtb.walker.pwrStateResidencyTicks::UNDEFINED  81870145000                       # Cumulative time (in ticks) in various power states
system.cpu.dtb.stage2_mmu.stage2_tlb.walker.pwrStateResidencyTicks::UNDEFINED  81870145000                       # Cumulative time (in ticks) in various power states
system.cpu.dcache.pwrStateResidencyTicks::UNDEFINED  81870145000                       # Cumulative time (in ticks) in various power states
system.cpu.dcache.demand_hits::.cpu.data     51388560                       # number of demand (read+write) hits
system.cpu.dcache.demand_hits::total         51388560                       # number of demand (read+write) hits
system.cpu.dcache.overall_hits::.cpu.data     51389068                       # number of overall hits
system.cpu.dcache.overall_hits::total        51389068                       # number of overall hits
system.cpu.dcache.demand_misses::.cpu.data       686443                       # number of demand (read+write) misses
system.cpu.dcache.demand_misses::total         686443                       # number of demand (read+write) misses
system.cpu.dcache.overall_misses::.cpu.data       694354                       # number of overall misses
system.cpu.dcache.overall_misses::total        694354                       # number of overall misses
system.cpu.dcache.demand_miss_latency::.cpu.data  22104425000                       # number of demand (read+write) miss cycles
system.cpu.dcache.demand_miss_latency::total  22104425000                       # number of demand (read+write) miss cycles
system.cpu.dcache.overall_miss_latency::.cpu.data  22104425000                       # number of overall miss cycles
system.cpu.dcache.overall_miss_latency::total  22104425000                       # number of overall miss cycles
system.cpu.dcache.demand_accesses::.cpu.data     52075003                       # number of demand (read+write) accesses
system.cpu.dcache.demand_accesses::total     52075003                       # number of demand (read+write) accesses
system.cpu.dcache.overall_accesses::.cpu.data     52083422                       # number of overall (read+write) accesses
system.cpu.dcache.overall_accesses::total     52083422                       # number of overall (read+write) accesses
system.cpu.dcache.demand_miss_rate::.cpu.data     0.013182                       # miss rate for demand accesses
system.cpu.dcache.demand_miss_rate::total     0.013182                       # miss rate for demand accesses
system.cpu.dcache.overall_miss_rate::.cpu.data     0.013332                       # miss rate for overall accesses
system.cpu.dcache.overall_miss_rate::total     0.013332                       # miss rate for overall accesses
system.cpu.dcache.demand_avg_miss_latency::.cpu.data 32201.399097                       # average overall miss latency
system.cpu.dcache.demand_avg_miss_latency::total 32201.399097                       # average overall miss latency
system.cpu.dcache.overall_avg_miss_latency::.cpu.data 31834.518128                       # average overall miss latency
system.cpu.dcache.overall_avg_miss_latency::total 31834.518128                       # average overall miss latency
system.cpu.dcache.blocked_cycles::no_mshrs       208547                       # number of cycles access was blocked
system.cpu.dcache.blocked_cycles::no_targets            0                       # number of cycles access was blocked
system.cpu.dcache.blocked::no_mshrs              3165                       # number of cycles access was blocked
system.cpu.dcache.blocked::no_targets               0                       # number of cycles access was blocked
system.cpu.dcache.avg_blocked_cycles::no_mshrs    65.891627                       # average number of cycles each access was blocked
system.cpu.dcache.avg_blocked_cycles::no_targets          nan                       # average number of cycles each access was blocked
system.cpu.dcache.writebacks::.writebacks       579977                       # number of writebacks
system.cpu.dcache.writebacks::total            579977                       # number of writebacks
system.cpu.dcache.demand_mshr_hits::.cpu.data        58922                       # number of demand (read+write) MSHR hits
system.cpu.dcache.demand_mshr_hits::total        58922                       # number of demand (read+write) MSHR hits
system.cpu.dcache.overall_mshr_hits::.cpu.data        58922                       # number of overall MSHR hits
system.cpu.dcache.overall_mshr_hits::total        58922                       # number of overall MSHR hits
system.cpu.dcache.demand_mshr_misses::.cpu.data       627521                       # number of demand (read+write) MSHR misses
system.cpu.dcache.demand_mshr_misses::total       627521                       # number of demand (read+write) MSHR misses
system.cpu.dcache.overall_mshr_misses::.cpu.data       635427                       # number of overall MSHR misses
system.cpu.dcache.overall_mshr_misses::total       635427                       # number of overall MSHR misses
system.cpu.dcache.demand_mshr_miss_latency::.cpu.data  19906564000                       # number of demand (read+write) MSHR miss cycles
system.cpu.dcache.demand_mshr_miss_latency::total  19906564000                       # number of demand (read+write) MSHR miss cycles
system.cpu.dcache.overall_mshr_miss_latency::.cpu.data  20598940499                       # number of overall MSHR miss cycles
system.cpu.dcache.overall_mshr_miss_latency::total  20598940499                       # number of overall MSHR miss cycles
system.cpu.dcache.demand_mshr_miss_rate::.cpu.data     0.012050                       # mshr miss rate for demand accesses
system.cpu.dcache.demand_mshr_miss_rate::total     0.012050                       # mshr miss rate for demand accesses
system.cpu.dcache.overall_mshr_miss_rate::.cpu.data     0.012200                       # mshr miss rate for overall accesses
system.cpu.dcache.overall_mshr_miss_rate::total     0.012200                       # mshr miss rate for overall accesses
system.cpu.dcache.demand_avg_mshr_miss_latency::.cpu.data 31722.546337                       # average overall mshr miss latency
system.cpu.dcache.demand_avg_mshr_miss_latency::total 31722.546337                       # average overall mshr miss latency
system.cpu.dcache.overall_avg_mshr_miss_latency::.cpu.data 32417.477537                       # average overall mshr miss latency
system.cpu.dcache.overall_avg_mshr_miss_latency::total 32417.477537                       # average overall mshr miss latency
system.cpu.dcache.replacements                 634402                       # number of replacements
system.cpu.dcache.ReadReq_hits::.cpu.data     40770182                       # number of ReadReq hits
system.cpu.dcache.ReadReq_hits::total        40770182                       # number of ReadReq hits
system.cpu.dcache.ReadReq_misses::.cpu.data       354720                       # number of ReadReq misses
system.cpu.dcache.ReadReq_misses::total        354720                       # number of ReadReq misses
system.cpu.dcache.ReadReq_miss_latency::.cpu.data   7510348500                       # number of ReadReq miss cycles
system.cpu.dcache.ReadReq_miss_latency::total   7510348500                       # number of ReadReq miss cycles
system.cpu.dcache.ReadReq_accesses::.cpu.data     41124902                       # number of ReadReq accesses(hits+misses)
system.cpu.dcache.ReadReq_accesses::total     41124902                       # number of ReadReq accesses(hits+misses)
system.cpu.dcache.ReadReq_miss_rate::.cpu.data     0.008625                       # miss rate for ReadReq accesses
system.cpu.dcache.ReadReq_miss_rate::total     0.008625                       # miss rate for ReadReq accesses
system.cpu.dcache.ReadReq_avg_miss_latency::.cpu.data 21172.610792                       # average ReadReq miss latency
system.cpu.dcache.ReadReq_avg_miss_latency::total 21172.610792                       # average ReadReq miss latency
system.cpu.dcache.ReadReq_mshr_hits::.cpu.data          640                       # number of ReadReq MSHR hits
system.cpu.dcache.ReadReq_mshr_hits::total          640                       # number of ReadReq MSHR hits
system.cpu.dcache.ReadReq_mshr_misses::.cpu.data       354080                       # number of ReadReq MSHR misses
system.cpu.dcache.ReadReq_mshr_misses::total       354080                       # number of ReadReq MSHR misses
system.cpu.dcache.ReadReq_mshr_miss_latency::.cpu.data   7128043500                       # number of ReadReq MSHR miss cycles
system.cpu.dcache.ReadReq_mshr_miss_latency::total   7128043500                       # number of ReadReq MSHR miss cycles
system.cpu.dcache.ReadReq_mshr_miss_rate::.cpu.data     0.008610                       # mshr miss rate for ReadReq accesses
system.cpu.dcache.ReadReq_mshr_miss_rate::total     0.008610                       # mshr miss rate for ReadReq accesses
system.cpu.dcache.ReadReq_avg_mshr_miss_latency::.cpu.data 20131.166685                       # average ReadReq mshr miss latency
system.cpu.dcache.ReadReq_avg_mshr_miss_latency::total 20131.166685                       # average ReadReq mshr miss latency
system.cpu.dcache.WriteReq_hits::.cpu.data     10618378                       # number of WriteReq hits
system.cpu.dcache.WriteReq_hits::total       10618378                       # number of WriteReq hits
system.cpu.dcache.WriteReq_misses::.cpu.data       331723                       # number of WriteReq misses
system.cpu.dcache.WriteReq_misses::total       331723                       # number of WriteReq misses
system.cpu.dcache.WriteReq_miss_latency::.cpu.data  14594076500                       # number of WriteReq miss cycles
system.cpu.dcache.WriteReq_miss_latency::total  14594076500                       # number of WriteReq miss cycles
system.cpu.dcache.WriteReq_accesses::.cpu.data     10950101                       # number of WriteReq accesses(hits+misses)
system.cpu.dcache.WriteReq_accesses::total     10950101                       # number of WriteReq accesses(hits+misses)
system.cpu.dcache.WriteReq_miss_rate::.cpu.data     0.030294                       # miss rate for WriteReq accesses
system.cpu.dcache.WriteReq_miss_rate::total     0.030294                       # miss rate for WriteReq accesses
system.cpu.dcache.WriteReq_avg_miss_latency::.cpu.data 43994.768225                       # average WriteReq miss latency
system.cpu.dcache.WriteReq_avg_miss_latency::total 43994.768225                       # average WriteReq miss latency
system.cpu.dcache.WriteReq_mshr_hits::.cpu.data        58282                       # number of WriteReq MSHR hits
system.cpu.dcache.WriteReq_mshr_hits::total        58282                       # number of WriteReq MSHR hits
system.cpu.dcache.WriteReq_mshr_misses::.cpu.data       273441                       # number of WriteReq MSHR misses
system.cpu.dcache.WriteReq_mshr_misses::total       273441                       # number of WriteReq MSHR misses
system.cpu.dcache.WriteReq_mshr_miss_latency::.cpu.data  12778520500                       # number of WriteReq MSHR miss cycles
system.cpu.dcache.WriteReq_mshr_miss_latency::total  12778520500                       # number of WriteReq MSHR miss cycles
system.cpu.dcache.WriteReq_mshr_miss_rate::.cpu.data     0.024972                       # mshr miss rate for WriteReq accesses
system.cpu.dcache.WriteReq_mshr_miss_rate::total     0.024972                       # mshr miss rate for WriteReq accesses
system.cpu.dcache.WriteReq_avg_mshr_miss_latency::.cpu.data 46732.276798                       # average WriteReq mshr miss latency
system.cpu.dcache.WriteReq_avg_mshr_miss_latency::total 46732.276798                       # average WriteReq mshr miss latency
system.cpu.dcache.SoftPFReq_hits::.cpu.data          508                       # number of SoftPFReq hits
system.cpu.dcache.SoftPFReq_hits::total           508                       # number of SoftPFReq hits
system.cpu.dcache.SoftPFReq_misses::.cpu.data         7911                       # number of SoftPFReq misses
system.cpu.dcache.SoftPFReq_misses::total         7911                       # number of SoftPFReq misses
system.cpu.dcache.SoftPFReq_accesses::.cpu.data         8419                       # number of SoftPFReq accesses(hits+misses)
system.cpu.dcache.SoftPFReq_accesses::total         8419                       # number of SoftPFReq accesses(hits+misses)
system.cpu.dcache.SoftPFReq_miss_rate::.cpu.data     0.939660                       # miss rate for SoftPFReq accesses
system.cpu.dcache.SoftPFReq_miss_rate::total     0.939660                       # miss rate for SoftPFReq accesses
system.cpu.dcache.SoftPFReq_mshr_misses::.cpu.data         7906                       # number of SoftPFReq MSHR misses
system.cpu.dcache.SoftPFReq_mshr_misses::total         7906                       # number of SoftPFReq MSHR misses
system.cpu.dcache.SoftPFReq_mshr_miss_latency::.cpu.data    692376499                       # number of SoftPFReq MSHR miss cycles
system.cpu.dcache.SoftPFReq_mshr_miss_latency::total    692376499                       # number of SoftPFReq MSHR miss cycles
system.cpu.dcache.SoftPFReq_mshr_miss_rate::.cpu.data     0.939066                       # mshr miss rate for SoftPFReq accesses
system.cpu.dcache.SoftPFReq_mshr_miss_rate::total     0.939066                       # mshr miss rate for SoftPFReq accesses
system.cpu.dcache.SoftPFReq_avg_mshr_miss_latency::.cpu.data 87576.081331                       # average SoftPFReq mshr miss latency
system.cpu.dcache.SoftPFReq_avg_mshr_miss_latency::total 87576.081331                       # average SoftPFReq mshr miss latency
system.cpu.dcache.LoadLockedReq_hits::.cpu.data           38                       # number of LoadLockedReq hits
system.cpu.dcache.LoadLockedReq_hits::total           38                       # number of LoadLockedReq hits
system.cpu.dcache.LoadLockedReq_accesses::.cpu.data           38                       # number of LoadLockedReq accesses(hits+misses)
system.cpu.dcache.LoadLockedReq_accesses::total           38                       # number of LoadLockedReq accesses(hits+misses)
system.cpu.dcache.StoreCondReq_hits::.cpu.data           38                       # number of StoreCondReq hits
system.cpu.dcache.StoreCondReq_hits::total           38                       # number of StoreCondReq hits
system.cpu.dcache.StoreCondReq_accesses::.cpu.data           38                       # number of StoreCondReq accesses(hits+misses)
system.cpu.dcache.StoreCondReq_accesses::total           38                       # number of StoreCondReq accesses(hits+misses)
system.cpu.dcache.tags.pwrStateResidencyTicks::UNDEFINED  81870145000                       # Cumulative time (in ticks) in various power states
system.cpu.dcache.tags.tagsinuse          1007.910831                       # Cycle average of tags in use
system.cpu.dcache.tags.total_refs            52024570                       # Total number of references to valid blocks.
system.cpu.dcache.tags.sampled_refs            635426                       # Sample count of references to valid blocks.
system.cpu.dcache.tags.avg_refs             81.873531                       # Average number of references to valid blocks.
system.cpu.dcache.tags.warmup_cycle            176500                       # Cycle when the warmup percentage was hit.
system.cpu.dcache.tags.occ_blocks::.cpu.data  1007.910831                       # Average occupied blocks per requestor
system.cpu.dcache.tags.occ_percent::.cpu.data     0.984288                       # Average percentage of cache occupancy
system.cpu.dcache.tags.occ_percent::total     0.984288                       # Average percentage of cache occupancy
system.cpu.dcache.tags.occ_task_id_blocks::1024         1024                       # Occupied blocks per task id
system.cpu.dcache.tags.age_task_id_blocks_1024::0          266                       # Occupied blocks per task id
system.cpu.dcache.tags.age_task_id_blocks_1024::1          492                       # Occupied blocks per task id
system.cpu.dcache.tags.age_task_id_blocks_1024::2          262                       # Occupied blocks per task id
system.cpu.dcache.tags.age_task_id_blocks_1024::3            2                       # Occupied blocks per task id
system.cpu.dcache.tags.age_task_id_blocks_1024::4            2                       # Occupied blocks per task id
system.cpu.dcache.tags.occ_task_id_percent::1024            1                       # Percentage of cache occupancy per task id
system.cpu.dcache.tags.tag_accesses         208969418                       # Number of tag accesses
system.cpu.dcache.tags.data_accesses        208969418                       # Number of data accesses
system.cpu.itb.walker.pwrStateResidencyTicks::UNDEFINED  81870145000                       # Cumulative time (in ticks) in various power states
system.cpu.itb.stage2_mmu.stage2_tlb.walker.pwrStateResidencyTicks::UNDEFINED  81870145000                       # Cumulative time (in ticks) in various power states

---------- End Simulation Statistics   ----------
