
---------- Begin Simulation Statistics ----------
final_tick                                85437555500                       # Number of ticks from beginning of simulation (restored from checkpoints and never reset)
host_inst_rate                                 275035                       # Simulator instruction rate (inst/s)
host_mem_usage                                 686896                       # Number of bytes of host memory used
host_op_rate                                   275575                       # Simulator op (including micro ops) rate (op/s)
host_seconds                                   363.59                       # Real time elapsed on the host
host_tick_rate                              234983082                       # Simulator tick rate (ticks/s)
sim_freq                                 1000000000000                       # Frequency of simulated ticks
sim_insts                                   100000000                       # Number of instructions simulated
sim_ops                                     100196369                       # Number of ops (including micro ops) simulated
sim_seconds                                  0.085438                       # Number of seconds simulated
sim_ticks                                 85437555500                       # Number of ticks simulated
system.cpu.branchPred.BTBCorrect                    0                       # Number of correct BTB predictions (this stat may not work properly.
system.cpu.branchPred.BTBHitPct             99.695736                       # BTB Hit Percentage
system.cpu.branchPred.BTBHits                 2095395                       # Number of BTB hits
system.cpu.branchPred.BTBLookups              2101790                       # Number of BTB lookups
system.cpu.branchPred.RASInCorrect                  6                       # Number of incorrect RAS predictions.
system.cpu.branchPred.condIncorrect             81343                       # Number of conditional branches incorrect
system.cpu.branchPred.condPredicted           3727679                       # Number of conditional branches predicted
system.cpu.branchPred.indirectHits                291                       # Number of indirect target hits.
system.cpu.branchPred.indirectLookups             808                       # Number of indirect predictor lookups.
system.cpu.branchPred.indirectMisses              517                       # Number of indirect misses.
system.cpu.branchPred.lookups                 4477758                       # Number of BP lookups
system.cpu.branchPred.usedRAS                   65339                       # Number of times the RAS was used to get a target.
system.cpu.branchPredindirectMispredicted          171                       # Number of mispredicted indirect branches.
system.cpu.committedInsts                   100000000                       # Number of instructions committed
system.cpu.committedOps                     100196369                       # Number of ops (including micro ops) committed
system.cpu.cpi                               1.708751                       # CPI: cycles per instruction
system.cpu.discardedOps                        190658                       # Number of ops (including micro ops) which were discarded before commit
system.cpu.dtb.accesses                             0                       # DTB accesses
system.cpu.dtb.align_faults                         0                       # Number of TLB faults due to alignment restrictions
system.cpu.dtb.domain_faults                        0                       # Number of TLB faults due to domain restrictions
system.cpu.dtb.flush_entries                        0                       # Number of entries that have been flushed from TLB
system.cpu.dtb.flush_tlb                            0                       # Number of times complete TLB was flushed
system.cpu.dtb.flush_tlb_asid                       0                       # Number of times TLB was flushed by ASID
system.cpu.dtb.flush_tlb_mva                        0                       # Number of times TLB was flushed by MVA
system.cpu.dtb.flush_tlb_mva_asid                   0                       # Number of times TLB was flushed by MVA & ASID
system.cpu.dtb.hits                                 0                       # DTB hits
system.cpu.dtb.inst_accesses                        0                       # ITB inst accesses
system.cpu.dtb.inst_hits                            0                       # ITB inst hits
system.cpu.dtb.inst_misses                          0                       # ITB inst misses
system.cpu.dtb.misses                               0                       # DTB misses
system.cpu.dtb.perms_faults                         0                       # Number of TLB faults due to permissions restrictions
system.cpu.dtb.prefetch_faults                      0                       # Number of TLB faults due to prefetch
system.cpu.dtb.read_accesses                        0                       # DTB read accesses
system.cpu.dtb.read_hits                            0                       # DTB read hits
system.cpu.dtb.read_misses                          0                       # DTB read misses
system.cpu.dtb.stage2_mmu.stage2_tlb.accesses            0                       # DTB accesses
system.cpu.dtb.stage2_mmu.stage2_tlb.align_faults            0                       # Number of TLB faults due to alignment restrictions
system.cpu.dtb.stage2_mmu.stage2_tlb.domain_faults            0                       # Number of TLB faults due to domain restrictions
system.cpu.dtb.stage2_mmu.stage2_tlb.flush_entries            0                       # Number of entries that have been flushed from TLB
system.cpu.dtb.stage2_mmu.stage2_tlb.flush_tlb            0                       # Number of times complete TLB was flushed
system.cpu.dtb.stage2_mmu.stage2_tlb.flush_tlb_asid            0                       # Number of times TLB was flushed by ASID
system.cpu.dtb.stage2_mmu.stage2_tlb.flush_tlb_mva            0                       # Number of times TLB was flushed by MVA
system.cpu.dtb.stage2_mmu.stage2_tlb.flush_tlb_mva_asid            0                       # Number of times TLB was flushed by MVA & ASID
system.cpu.dtb.stage2_mmu.stage2_tlb.hits            0                       # DTB hits
system.cpu.dtb.stage2_mmu.stage2_tlb.inst_accesses            0                       # ITB inst accesses
system.cpu.dtb.stage2_mmu.stage2_tlb.inst_hits            0                       # ITB inst hits
system.cpu.dtb.stage2_mmu.stage2_tlb.inst_misses            0                       # ITB inst misses
system.cpu.dtb.stage2_mmu.stage2_tlb.misses            0                       # DTB misses
system.cpu.dtb.stage2_mmu.stage2_tlb.perms_faults            0                       # Number of TLB faults due to permissions restrictions
system.cpu.dtb.stage2_mmu.stage2_tlb.prefetch_faults            0                       # Number of TLB faults due to prefetch
system.cpu.dtb.stage2_mmu.stage2_tlb.read_accesses            0                       # DTB read accesses
system.cpu.dtb.stage2_mmu.stage2_tlb.read_hits            0                       # DTB read hits
system.cpu.dtb.stage2_mmu.stage2_tlb.read_misses            0                       # DTB read misses
system.cpu.dtb.stage2_mmu.stage2_tlb.walker.walkRequestOrigin_Requested::Data            0                       # Table walker requests started/completed, data/inst
system.cpu.dtb.stage2_mmu.stage2_tlb.walker.walkRequestOrigin_Requested::Inst            0                       # Table walker requests started/completed, data/inst
system.cpu.dtb.stage2_mmu.stage2_tlb.walker.walkRequestOrigin_Requested::total            0                       # Table walker requests started/completed, data/inst
system.cpu.dtb.stage2_mmu.stage2_tlb.walker.walkRequestOrigin_Completed::Data            0                       # Table walker requests started/completed, data/inst
system.cpu.dtb.stage2_mmu.stage2_tlb.walker.walkRequestOrigin_Completed::Inst            0                       # Table walker requests started/completed, data/inst
system.cpu.dtb.stage2_mmu.stage2_tlb.walker.walkRequestOrigin_Completed::total            0                       # Table walker requests started/completed, data/inst
system.cpu.dtb.stage2_mmu.stage2_tlb.walker.walkRequestOrigin::total            0                       # Table walker requests started/completed, data/inst
system.cpu.dtb.stage2_mmu.stage2_tlb.walker.walks            0                       # Table walker walks requested
system.cpu.dtb.stage2_mmu.stage2_tlb.write_accesses            0                       # DTB write accesses
system.cpu.dtb.stage2_mmu.stage2_tlb.write_hits            0                       # DTB write hits
system.cpu.dtb.stage2_mmu.stage2_tlb.write_misses            0                       # DTB write misses
system.cpu.dtb.walker.walkRequestOrigin_Requested::Data            0                       # Table walker requests started/completed, data/inst
system.cpu.dtb.walker.walkRequestOrigin_Requested::Inst            0                       # Table walker requests started/completed, data/inst
system.cpu.dtb.walker.walkRequestOrigin_Requested::total            0                       # Table walker requests started/completed, data/inst
system.cpu.dtb.walker.walkRequestOrigin_Completed::Data            0                       # Table walker requests started/completed, data/inst
system.cpu.dtb.walker.walkRequestOrigin_Completed::Inst            0                       # Table walker requests started/completed, data/inst
system.cpu.dtb.walker.walkRequestOrigin_Completed::total            0                       # Table walker requests started/completed, data/inst
system.cpu.dtb.walker.walkRequestOrigin::total            0                       # Table walker requests started/completed, data/inst
system.cpu.dtb.walker.walks                         0                       # Table walker walks requested
system.cpu.dtb.write_accesses                       0                       # DTB write accesses
system.cpu.dtb.write_hits                           0                       # DTB write hits
system.cpu.dtb.write_misses                         0                       # DTB write misses
system.cpu.fetch2.amo_instructions                  0                       # Number of memory atomic instructions successfully decoded
system.cpu.fetch2.fp_instructions                   0                       # Number of floating point instructions successfully decoded
system.cpu.fetch2.int_instructions           42610100                       # Number of integer instructions successfully decoded
system.cpu.fetch2.load_instructions          43402261                       # Number of memory load instructions successfully decoded
system.cpu.fetch2.store_instructions         11001393                       # Number of memory store instructions successfully decoded
system.cpu.fetch2.vec_instructions                  0                       # Number of SIMD instructions successfully decoded
system.cpu.idleCycles                        38130311                       # Total number of cycles that the object has spent stopped
system.cpu.ipc                               0.585223                       # IPC: instructions per cycle
system.cpu.itb.accesses                             0                       # DTB accesses
system.cpu.itb.align_faults                         0                       # Number of TLB faults due to alignment restrictions
system.cpu.itb.domain_faults                        0                       # Number of TLB faults due to domain restrictions
system.cpu.itb.flush_entries                        0                       # Number of entries that have been flushed from TLB
system.cpu.itb.flush_tlb                            0                       # Number of times complete TLB was flushed
system.cpu.itb.flush_tlb_asid                       0                       # Number of times TLB was flushed by ASID
system.cpu.itb.flush_tlb_mva                        0                       # Number of times TLB was flushed by MVA
system.cpu.itb.flush_tlb_mva_asid                   0                       # Number of times TLB was flushed by MVA & ASID
system.cpu.itb.hits                                 0                       # DTB hits
system.cpu.itb.inst_accesses                        0                       # ITB inst accesses
system.cpu.itb.inst_hits                            0                       # ITB inst hits
system.cpu.itb.inst_misses                          0                       # ITB inst misses
system.cpu.itb.misses                               0                       # DTB misses
system.cpu.itb.perms_faults                         0                       # Number of TLB faults due to permissions restrictions
system.cpu.itb.prefetch_faults                      0                       # Number of TLB faults due to prefetch
system.cpu.itb.read_accesses                        0                       # DTB read accesses
system.cpu.itb.read_hits                            0                       # DTB read hits
system.cpu.itb.read_misses                          0                       # DTB read misses
system.cpu.itb.stage2_mmu.stage2_tlb.accesses            0                       # DTB accesses
system.cpu.itb.stage2_mmu.stage2_tlb.align_faults            0                       # Number of TLB faults due to alignment restrictions
system.cpu.itb.stage2_mmu.stage2_tlb.domain_faults            0                       # Number of TLB faults due to domain restrictions
system.cpu.itb.stage2_mmu.stage2_tlb.flush_entries            0                       # Number of entries that have been flushed from TLB
system.cpu.itb.stage2_mmu.stage2_tlb.flush_tlb            0                       # Number of times complete TLB was flushed
system.cpu.itb.stage2_mmu.stage2_tlb.flush_tlb_asid            0                       # Number of times TLB was flushed by ASID
system.cpu.itb.stage2_mmu.stage2_tlb.flush_tlb_mva            0                       # Number of times TLB was flushed by MVA
system.cpu.itb.stage2_mmu.stage2_tlb.flush_tlb_mva_asid            0                       # Number of times TLB was flushed by MVA & ASID
system.cpu.itb.stage2_mmu.stage2_tlb.hits            0                       # DTB hits
system.cpu.itb.stage2_mmu.stage2_tlb.inst_accesses            0                       # ITB inst accesses
system.cpu.itb.stage2_mmu.stage2_tlb.inst_hits            0                       # ITB inst hits
system.cpu.itb.stage2_mmu.stage2_tlb.inst_misses            0                       # ITB inst misses
system.cpu.itb.stage2_mmu.stage2_tlb.misses            0                       # DTB misses
system.cpu.itb.stage2_mmu.stage2_tlb.perms_faults            0                       # Number of TLB faults due to permissions restrictions
system.cpu.itb.stage2_mmu.stage2_tlb.prefetch_faults            0                       # Number of TLB faults due to prefetch
system.cpu.itb.stage2_mmu.stage2_tlb.read_accesses            0                       # DTB read accesses
system.cpu.itb.stage2_mmu.stage2_tlb.read_hits            0                       # DTB read hits
system.cpu.itb.stage2_mmu.stage2_tlb.read_misses            0                       # DTB read misses
system.cpu.itb.stage2_mmu.stage2_tlb.walker.walkRequestOrigin_Requested::Data            0                       # Table walker requests started/completed, data/inst
system.cpu.itb.stage2_mmu.stage2_tlb.walker.walkRequestOrigin_Requested::Inst            0                       # Table walker requests started/completed, data/inst
system.cpu.itb.stage2_mmu.stage2_tlb.walker.walkRequestOrigin_Requested::total            0                       # Table walker requests started/completed, data/inst
system.cpu.itb.stage2_mmu.stage2_tlb.walker.walkRequestOrigin_Completed::Data            0                       # Table walker requests started/completed, data/inst
system.cpu.itb.stage2_mmu.stage2_tlb.walker.walkRequestOrigin_Completed::Inst            0                       # Table walker requests started/completed, data/inst
system.cpu.itb.stage2_mmu.stage2_tlb.walker.walkRequestOrigin_Completed::total            0                       # Table walker requests started/completed, data/inst
system.cpu.itb.stage2_mmu.stage2_tlb.walker.walkRequestOrigin::total            0                       # Table walker requests started/completed, data/inst
system.cpu.itb.stage2_mmu.stage2_tlb.walker.walks            0                       # Table walker walks requested
system.cpu.itb.stage2_mmu.stage2_tlb.write_accesses            0                       # DTB write accesses
system.cpu.itb.stage2_mmu.stage2_tlb.write_hits            0                       # DTB write hits
system.cpu.itb.stage2_mmu.stage2_tlb.write_misses            0                       # DTB write misses
system.cpu.itb.walker.walkRequestOrigin_Requested::Data            0                       # Table walker requests started/completed, data/inst
system.cpu.itb.walker.walkRequestOrigin_Requested::Inst            0                       # Table walker requests started/completed, data/inst
system.cpu.itb.walker.walkRequestOrigin_Requested::total            0                       # Table walker requests started/completed, data/inst
system.cpu.itb.walker.walkRequestOrigin_Completed::Data            0                       # Table walker requests started/completed, data/inst
system.cpu.itb.walker.walkRequestOrigin_Completed::Inst            0                       # Table walker requests started/completed, data/inst
system.cpu.itb.walker.walkRequestOrigin_Completed::total            0                       # Table walker requests started/completed, data/inst
system.cpu.itb.walker.walkRequestOrigin::total            0                       # Table walker requests started/completed, data/inst
system.cpu.itb.walker.walks                         0                       # Table walker walks requested
system.cpu.itb.write_accesses                       0                       # DTB write accesses
system.cpu.itb.write_hits                           0                       # DTB write hits
system.cpu.itb.write_misses                         0                       # DTB write misses
system.cpu.numCycles                        170875111                       # number of cpu cycles simulated
system.cpu.numFetchSuspends                         0                       # Number of times Execute suspended instruction fetching
system.cpu.numWorkItemsCompleted                    0                       # number of work items this cpu completed
system.cpu.numWorkItemsStarted                      0                       # number of work items this cpu started
system.cpu.op_class_0::No_OpClass                   0      0.00%      0.00% # Class of committed instruction
system.cpu.op_class_0::IntAlu                46531437     46.44%     46.44% # Class of committed instruction
system.cpu.op_class_0::IntMult                  20720      0.02%     46.46% # Class of committed instruction
system.cpu.op_class_0::IntDiv                       0      0.00%     46.46% # Class of committed instruction
system.cpu.op_class_0::FloatAdd                     0      0.00%     46.46% # Class of committed instruction
system.cpu.op_class_0::FloatCmp                     0      0.00%     46.46% # Class of committed instruction
system.cpu.op_class_0::FloatCvt                     0      0.00%     46.46% # Class of committed instruction
system.cpu.op_class_0::FloatMult                    0      0.00%     46.46% # Class of committed instruction
system.cpu.op_class_0::FloatMultAcc                 0      0.00%     46.46% # Class of committed instruction
system.cpu.op_class_0::FloatDiv                     0      0.00%     46.46% # Class of committed instruction
system.cpu.op_class_0::FloatMisc                    0      0.00%     46.46% # Class of committed instruction
system.cpu.op_class_0::FloatSqrt                    0      0.00%     46.46% # Class of committed instruction
system.cpu.op_class_0::SimdAdd                      0      0.00%     46.46% # Class of committed instruction
system.cpu.op_class_0::SimdAddAcc                   0      0.00%     46.46% # Class of committed instruction
system.cpu.op_class_0::SimdAlu                      0      0.00%     46.46% # Class of committed instruction
system.cpu.op_class_0::SimdCmp                      0      0.00%     46.46% # Class of committed instruction
system.cpu.op_class_0::SimdCvt                      0      0.00%     46.46% # Class of committed instruction
system.cpu.op_class_0::SimdMisc                     0      0.00%     46.46% # Class of committed instruction
system.cpu.op_class_0::SimdMult                     0      0.00%     46.46% # Class of committed instruction
system.cpu.op_class_0::SimdMultAcc                  0      0.00%     46.46% # Class of committed instruction
system.cpu.op_class_0::SimdShift                    0      0.00%     46.46% # Class of committed instruction
system.cpu.op_class_0::SimdShiftAcc                 0      0.00%     46.46% # Class of committed instruction
system.cpu.op_class_0::SimdDiv                      0      0.00%     46.46% # Class of committed instruction
system.cpu.op_class_0::SimdSqrt                     0      0.00%     46.46% # Class of committed instruction
system.cpu.op_class_0::SimdFloatAdd                 0      0.00%     46.46% # Class of committed instruction
system.cpu.op_class_0::SimdFloatAlu                 0      0.00%     46.46% # Class of committed instruction
system.cpu.op_class_0::SimdFloatCmp                 0      0.00%     46.46% # Class of committed instruction
system.cpu.op_class_0::SimdFloatCvt                 0      0.00%     46.46% # Class of committed instruction
system.cpu.op_class_0::SimdFloatDiv                 0      0.00%     46.46% # Class of committed instruction
system.cpu.op_class_0::SimdFloatMisc               18      0.00%     46.46% # Class of committed instruction
system.cpu.op_class_0::SimdFloatMult                0      0.00%     46.46% # Class of committed instruction
system.cpu.op_class_0::SimdFloatMultAcc             0      0.00%     46.46% # Class of committed instruction
system.cpu.op_class_0::SimdFloatSqrt                0      0.00%     46.46% # Class of committed instruction
system.cpu.op_class_0::SimdReduceAdd                0      0.00%     46.46% # Class of committed instruction
system.cpu.op_class_0::SimdReduceAlu                0      0.00%     46.46% # Class of committed instruction
system.cpu.op_class_0::SimdReduceCmp                0      0.00%     46.46% # Class of committed instruction
system.cpu.op_class_0::SimdFloatReduceAdd            0      0.00%     46.46% # Class of committed instruction
system.cpu.op_class_0::SimdFloatReduceCmp            0      0.00%     46.46% # Class of committed instruction
system.cpu.op_class_0::SimdAes                      0      0.00%     46.46% # Class of committed instruction
system.cpu.op_class_0::SimdAesMix                   0      0.00%     46.46% # Class of committed instruction
system.cpu.op_class_0::SimdSha1Hash                 0      0.00%     46.46% # Class of committed instruction
system.cpu.op_class_0::SimdSha1Hash2                0      0.00%     46.46% # Class of committed instruction
system.cpu.op_class_0::SimdSha256Hash               0      0.00%     46.46% # Class of committed instruction
system.cpu.op_class_0::SimdSha256Hash2              0      0.00%     46.46% # Class of committed instruction
system.cpu.op_class_0::SimdShaSigma2                0      0.00%     46.46% # Class of committed instruction
system.cpu.op_class_0::SimdShaSigma3                0      0.00%     46.46% # Class of committed instruction
system.cpu.op_class_0::SimdPredAlu                  0      0.00%     46.46% # Class of committed instruction
system.cpu.op_class_0::MemRead               42693580     42.61%     89.07% # Class of committed instruction
system.cpu.op_class_0::MemWrite              10950614     10.93%    100.00% # Class of committed instruction
system.cpu.op_class_0::FloatMemRead                 0      0.00%    100.00% # Class of committed instruction
system.cpu.op_class_0::FloatMemWrite                0      0.00%    100.00% # Class of committed instruction
system.cpu.op_class_0::IprAccess                    0      0.00%    100.00% # Class of committed instruction
system.cpu.op_class_0::InstPrefetch                 0      0.00%    100.00% # Class of committed instruction
system.cpu.op_class_0::total                100196369                       # Class of committed instruction
system.cpu.tickCycles                       132744800                       # Number of cycles that the object actually ticked
system.cpu.workload.numSyscalls                    84                       # Number of system calls
system.membus.snoop_filter.hit_multi_requests            0                       # Number of requests hitting in the snoop filter with multiple (>1) holders of the requested data.
system.membus.snoop_filter.hit_multi_snoops            0                       # Number of snoops hitting in the snoop filter with multiple (>1) holders of the requested data.
system.membus.snoop_filter.hit_single_requests       208620                       # Number of requests hitting in the snoop filter with a single holder of the requested data.
system.membus.snoop_filter.hit_single_snoops            0                       # Number of snoops hitting in the snoop filter with a single holder of the requested data.
system.membus.snoop_filter.tot_requests        434057                       # Total number of requests made to the snoop filter.
system.membus.snoop_filter.tot_snoops               0                       # Total number of snoops made to the snoop filter.
system.tol2bus.snoop_filter.hit_multi_requests          120                       # Number of requests hitting in the snoop filter with multiple (>1) holders of the requested data.
system.tol2bus.snoop_filter.hit_multi_snoops            7                       # Number of snoops hitting in the snoop filter with multiple (>1) holders of the requested data.
system.tol2bus.snoop_filter.hit_single_requests       710987                       # Number of requests hitting in the snoop filter with a single holder of the requested data.
system.tol2bus.snoop_filter.hit_single_snoops          666                       # Number of snoops hitting in the snoop filter with a single holder of the requested data.
system.tol2bus.snoop_filter.tot_requests      1423440                       # Total number of requests made to the snoop filter.
system.tol2bus.snoop_filter.tot_snoops            673                       # Total number of snoops made to the snoop filter.
system.membus.pwrStateResidencyTicks::UNDEFINED  85437555500                       # Cumulative time (in ticks) in various power states
system.membus.trans_dist::ReadResp              81508                       # Transaction distribution
system.membus.trans_dist::WritebackDirty       139067                       # Transaction distribution
system.membus.trans_dist::CleanEvict            69546                       # Transaction distribution
system.membus.trans_dist::ReadExReq            143936                       # Transaction distribution
system.membus.trans_dist::ReadExResp           143935                       # Transaction distribution
system.membus.trans_dist::ReadSharedReq         81508                       # Transaction distribution
system.membus.pkt_count_system.l2.mem_side::system.mem_ctrls.port       659500                       # Packet count per connected master and slave (bytes)
system.membus.pkt_count::total                 659500                       # Packet count per connected master and slave (bytes)
system.membus.pkt_size_system.l2.mem_side::system.mem_ctrls.port     23328640                       # Cumulative packet size per connected master and slave (bytes)
system.membus.pkt_size::total                23328640                       # Cumulative packet size per connected master and slave (bytes)
system.membus.snoops                                0                       # Total snoops (count)
system.membus.snoopTraffic                          0                       # Total snoop traffic (bytes)
system.membus.snoop_fanout::samples            225444                       # Request fanout histogram
system.membus.snoop_fanout::mean                    0                       # Request fanout histogram
system.membus.snoop_fanout::stdev                   0                       # Request fanout histogram
system.membus.snoop_fanout::underflows              0      0.00%      0.00% # Request fanout histogram
system.membus.snoop_fanout::0                  225444    100.00%    100.00% # Request fanout histogram
system.membus.snoop_fanout::1                       0      0.00%    100.00% # Request fanout histogram
system.membus.snoop_fanout::overflows               0      0.00%    100.00% # Request fanout histogram
system.membus.snoop_fanout::min_value               0                       # Request fanout histogram
system.membus.snoop_fanout::max_value               0                       # Request fanout histogram
system.membus.snoop_fanout::total              225444                       # Request fanout histogram
system.membus.respLayer1.occupancy         1217697000                       # Layer occupancy (ticks)
system.membus.respLayer1.utilization              1.4                       # Layer utilization (%)
system.membus.reqLayer0.occupancy          1036636500                       # Layer occupancy (ticks)
system.membus.reqLayer0.utilization               1.2                       # Layer utilization (%)
system.tol2bus.pwrStateResidencyTicks::UNDEFINED  85437555500                       # Cumulative time (in ticks) in various power states
system.tol2bus.trans_dist::ReadResp            426078                       # Transaction distribution
system.tol2bus.trans_dist::WritebackDirty       765718                       # Transaction distribution
system.tol2bus.trans_dist::WritebackClean          302                       # Transaction distribution
system.tol2bus.trans_dist::CleanEvict          154231                       # Transaction distribution
system.tol2bus.trans_dist::ReadExReq           286377                       # Transaction distribution
system.tol2bus.trans_dist::ReadExResp          286376                       # Transaction distribution
system.tol2bus.trans_dist::ReadCleanReq           747                       # Transaction distribution
system.tol2bus.trans_dist::ReadSharedReq       425331                       # Transaction distribution
system.tol2bus.pkt_count_system.cpu.icache.mem_side::system.l2.cpu_side         1796                       # Packet count per connected master and slave (bytes)
system.tol2bus.pkt_count_system.cpu.dcache.mem_side::system.l2.cpu_side      2134098                       # Packet count per connected master and slave (bytes)
system.tol2bus.pkt_count::total               2135894                       # Packet count per connected master and slave (bytes)
system.tol2bus.pkt_size_system.cpu.icache.mem_side::system.l2.cpu_side        67136                       # Cumulative packet size per connected master and slave (bytes)
system.tol2bus.pkt_size_system.cpu.dcache.mem_side::system.l2.cpu_side     85654912                       # Cumulative packet size per connected master and slave (bytes)
system.tol2bus.pkt_size::total               85722048                       # Cumulative packet size per connected master and slave (bytes)
system.tol2bus.snoops                          209266                       # Total snoops (count)
system.tol2bus.snoopTraffic                   8900288                       # Total snoop traffic (bytes)
system.tol2bus.snoop_fanout::samples           921721                       # Request fanout histogram
system.tol2bus.snoop_fanout::mean            0.000870                       # Request fanout histogram
system.tol2bus.snoop_fanout::stdev           0.029741                       # Request fanout histogram
system.tol2bus.snoop_fanout::underflows             0      0.00%      0.00% # Request fanout histogram
system.tol2bus.snoop_fanout::0                 920926     99.91%     99.91% # Request fanout histogram
system.tol2bus.snoop_fanout::1                    788      0.09%    100.00% # Request fanout histogram
system.tol2bus.snoop_fanout::2                      7      0.00%    100.00% # Request fanout histogram
system.tol2bus.snoop_fanout::overflows              0      0.00%    100.00% # Request fanout histogram
system.tol2bus.snoop_fanout::min_value              0                       # Request fanout histogram
system.tol2bus.snoop_fanout::max_value              2                       # Request fanout histogram
system.tol2bus.snoop_fanout::total             921721                       # Request fanout histogram
system.tol2bus.reqLayer0.occupancy         1338673000                       # Layer occupancy (ticks)
system.tol2bus.reqLayer0.utilization              1.6                       # Layer utilization (%)
system.tol2bus.respLayer1.occupancy        1067562496                       # Layer occupancy (ticks)
system.tol2bus.respLayer1.utilization             1.2                       # Layer utilization (%)
system.tol2bus.respLayer0.occupancy           1120500                       # Layer occupancy (ticks)
system.tol2bus.respLayer0.utilization             0.0                       # Layer utilization (%)
system.voltage_domain.voltage                       1                       # Voltage in Volts
system.clk_domain.clock                          1000                       # Clock period in ticks
system.l2.pwrStateResidencyTicks::UNDEFINED  85437555500                       # Cumulative time (in ticks) in various power states
system.l2.demand_hits::.cpu.inst                   79                       # number of demand (read+write) hits
system.l2.demand_hits::.cpu.data               486928                       # number of demand (read+write) hits
system.l2.demand_hits::total                   487007                       # number of demand (read+write) hits
system.l2.overall_hits::.cpu.inst                  79                       # number of overall hits
system.l2.overall_hits::.cpu.data              486928                       # number of overall hits
system.l2.overall_hits::total                  487007                       # number of overall hits
system.l2.demand_misses::.cpu.inst                668                       # number of demand (read+write) misses
system.l2.demand_misses::.cpu.data             224780                       # number of demand (read+write) misses
system.l2.demand_misses::total                 225448                       # number of demand (read+write) misses
system.l2.overall_misses::.cpu.inst               668                       # number of overall misses
system.l2.overall_misses::.cpu.data            224780                       # number of overall misses
system.l2.overall_misses::total                225448                       # number of overall misses
system.l2.demand_miss_latency::.cpu.inst     52376500                       # number of demand (read+write) miss cycles
system.l2.demand_miss_latency::.cpu.data  19181766500                       # number of demand (read+write) miss cycles
system.l2.demand_miss_latency::total      19234143000                       # number of demand (read+write) miss cycles
system.l2.overall_miss_latency::.cpu.inst     52376500                       # number of overall miss cycles
system.l2.overall_miss_latency::.cpu.data  19181766500                       # number of overall miss cycles
system.l2.overall_miss_latency::total     19234143000                       # number of overall miss cycles
system.l2.demand_accesses::.cpu.inst              747                       # number of demand (read+write) accesses
system.l2.demand_accesses::.cpu.data           711708                       # number of demand (read+write) accesses
system.l2.demand_accesses::total               712455                       # number of demand (read+write) accesses
system.l2.overall_accesses::.cpu.inst             747                       # number of overall (read+write) accesses
system.l2.overall_accesses::.cpu.data          711708                       # number of overall (read+write) accesses
system.l2.overall_accesses::total              712455                       # number of overall (read+write) accesses
system.l2.demand_miss_rate::.cpu.inst        0.894244                       # miss rate for demand accesses
system.l2.demand_miss_rate::.cpu.data        0.315832                       # miss rate for demand accesses
system.l2.demand_miss_rate::total            0.316438                       # miss rate for demand accesses
system.l2.overall_miss_rate::.cpu.inst       0.894244                       # miss rate for overall accesses
system.l2.overall_miss_rate::.cpu.data       0.315832                       # miss rate for overall accesses
system.l2.overall_miss_rate::total           0.316438                       # miss rate for overall accesses
system.l2.demand_avg_miss_latency::.cpu.inst 78407.934132                       # average overall miss latency
system.l2.demand_avg_miss_latency::.cpu.data 85335.734941                       # average overall miss latency
system.l2.demand_avg_miss_latency::total 85315.207942                       # average overall miss latency
system.l2.overall_avg_miss_latency::.cpu.inst 78407.934132                       # average overall miss latency
system.l2.overall_avg_miss_latency::.cpu.data 85335.734941                       # average overall miss latency
system.l2.overall_avg_miss_latency::total 85315.207942                       # average overall miss latency
system.l2.blocked_cycles::no_mshrs                  0                       # number of cycles access was blocked
system.l2.blocked_cycles::no_targets                0                       # number of cycles access was blocked
system.l2.blocked::no_mshrs                         0                       # number of cycles access was blocked
system.l2.blocked::no_targets                       0                       # number of cycles access was blocked
system.l2.avg_blocked_cycles::no_mshrs            nan                       # average number of cycles each access was blocked
system.l2.avg_blocked_cycles::no_targets          nan                       # average number of cycles each access was blocked
system.l2.writebacks::.writebacks              139067                       # number of writebacks
system.l2.writebacks::total                    139067                       # number of writebacks
system.l2.demand_mshr_hits::.cpu.data               4                       # number of demand (read+write) MSHR hits
system.l2.demand_mshr_hits::total                   4                       # number of demand (read+write) MSHR hits
system.l2.overall_mshr_hits::.cpu.data              4                       # number of overall MSHR hits
system.l2.overall_mshr_hits::total                  4                       # number of overall MSHR hits
system.l2.demand_mshr_misses::.cpu.inst           668                       # number of demand (read+write) MSHR misses
system.l2.demand_mshr_misses::.cpu.data        224776                       # number of demand (read+write) MSHR misses
system.l2.demand_mshr_misses::total            225444                       # number of demand (read+write) MSHR misses
system.l2.overall_mshr_misses::.cpu.inst          668                       # number of overall MSHR misses
system.l2.overall_mshr_misses::.cpu.data       224776                       # number of overall MSHR misses
system.l2.overall_mshr_misses::total           225444                       # number of overall MSHR misses
system.l2.demand_mshr_miss_latency::.cpu.inst     45696500                       # number of demand (read+write) MSHR miss cycles
system.l2.demand_mshr_miss_latency::.cpu.data  16933772500                       # number of demand (read+write) MSHR miss cycles
system.l2.demand_mshr_miss_latency::total  16979469000                       # number of demand (read+write) MSHR miss cycles
system.l2.overall_mshr_miss_latency::.cpu.inst     45696500                       # number of overall MSHR miss cycles
system.l2.overall_mshr_miss_latency::.cpu.data  16933772500                       # number of overall MSHR miss cycles
system.l2.overall_mshr_miss_latency::total  16979469000                       # number of overall MSHR miss cycles
system.l2.demand_mshr_miss_rate::.cpu.inst     0.894244                       # mshr miss rate for demand accesses
system.l2.demand_mshr_miss_rate::.cpu.data     0.315826                       # mshr miss rate for demand accesses
system.l2.demand_mshr_miss_rate::total       0.316433                       # mshr miss rate for demand accesses
system.l2.overall_mshr_miss_rate::.cpu.inst     0.894244                       # mshr miss rate for overall accesses
system.l2.overall_mshr_miss_rate::.cpu.data     0.315826                       # mshr miss rate for overall accesses
system.l2.overall_mshr_miss_rate::total      0.316433                       # mshr miss rate for overall accesses
system.l2.demand_avg_mshr_miss_latency::.cpu.inst 68407.934132                       # average overall mshr miss latency
system.l2.demand_avg_mshr_miss_latency::.cpu.data 75336.212496                       # average overall mshr miss latency
system.l2.demand_avg_mshr_miss_latency::total 75315.683717                       # average overall mshr miss latency
system.l2.overall_avg_mshr_miss_latency::.cpu.inst 68407.934132                       # average overall mshr miss latency
system.l2.overall_avg_mshr_miss_latency::.cpu.data 75336.212496                       # average overall mshr miss latency
system.l2.overall_avg_mshr_miss_latency::total 75315.683717                       # average overall mshr miss latency
system.l2.replacements                         209266                       # number of replacements
system.l2.WritebackDirty_hits::.writebacks       626651                       # number of WritebackDirty hits
system.l2.WritebackDirty_hits::total           626651                       # number of WritebackDirty hits
system.l2.WritebackDirty_accesses::.writebacks       626651                       # number of WritebackDirty accesses(hits+misses)
system.l2.WritebackDirty_accesses::total       626651                       # number of WritebackDirty accesses(hits+misses)
system.l2.WritebackClean_hits::.writebacks          293                       # number of WritebackClean hits
system.l2.WritebackClean_hits::total              293                       # number of WritebackClean hits
system.l2.WritebackClean_accesses::.writebacks          293                       # number of WritebackClean accesses(hits+misses)
system.l2.WritebackClean_accesses::total          293                       # number of WritebackClean accesses(hits+misses)
system.l2.CleanEvict_mshr_misses::.writebacks           20                       # number of CleanEvict MSHR misses
system.l2.CleanEvict_mshr_misses::total            20                       # number of CleanEvict MSHR misses
system.l2.CleanEvict_mshr_miss_rate::.writebacks          inf                       # mshr miss rate for CleanEvict accesses
system.l2.CleanEvict_mshr_miss_rate::total          inf                       # mshr miss rate for CleanEvict accesses
system.l2.ReadExReq_hits::.cpu.data            142441                       # number of ReadExReq hits
system.l2.ReadExReq_hits::total                142441                       # number of ReadExReq hits
system.l2.ReadExReq_misses::.cpu.data          143936                       # number of ReadExReq misses
system.l2.ReadExReq_misses::total              143936                       # number of ReadExReq misses
system.l2.ReadExReq_miss_latency::.cpu.data  12644918500                       # number of ReadExReq miss cycles
system.l2.ReadExReq_miss_latency::total   12644918500                       # number of ReadExReq miss cycles
system.l2.ReadExReq_accesses::.cpu.data        286377                       # number of ReadExReq accesses(hits+misses)
system.l2.ReadExReq_accesses::total            286377                       # number of ReadExReq accesses(hits+misses)
system.l2.ReadExReq_miss_rate::.cpu.data     0.502610                       # miss rate for ReadExReq accesses
system.l2.ReadExReq_miss_rate::total         0.502610                       # miss rate for ReadExReq accesses
system.l2.ReadExReq_avg_miss_latency::.cpu.data 87850.978907                       # average ReadExReq miss latency
system.l2.ReadExReq_avg_miss_latency::total 87850.978907                       # average ReadExReq miss latency
system.l2.ReadExReq_mshr_misses::.cpu.data       143936                       # number of ReadExReq MSHR misses
system.l2.ReadExReq_mshr_misses::total         143936                       # number of ReadExReq MSHR misses
system.l2.ReadExReq_mshr_miss_latency::.cpu.data  11205568500                       # number of ReadExReq MSHR miss cycles
system.l2.ReadExReq_mshr_miss_latency::total  11205568500                       # number of ReadExReq MSHR miss cycles
system.l2.ReadExReq_mshr_miss_rate::.cpu.data     0.502610                       # mshr miss rate for ReadExReq accesses
system.l2.ReadExReq_mshr_miss_rate::total     0.502610                       # mshr miss rate for ReadExReq accesses
system.l2.ReadExReq_avg_mshr_miss_latency::.cpu.data 77851.048383                       # average ReadExReq mshr miss latency
system.l2.ReadExReq_avg_mshr_miss_latency::total 77851.048383                       # average ReadExReq mshr miss latency
system.l2.ReadCleanReq_hits::.cpu.inst             79                       # number of ReadCleanReq hits
system.l2.ReadCleanReq_hits::total                 79                       # number of ReadCleanReq hits
system.l2.ReadCleanReq_misses::.cpu.inst          668                       # number of ReadCleanReq misses
system.l2.ReadCleanReq_misses::total              668                       # number of ReadCleanReq misses
system.l2.ReadCleanReq_miss_latency::.cpu.inst     52376500                       # number of ReadCleanReq miss cycles
system.l2.ReadCleanReq_miss_latency::total     52376500                       # number of ReadCleanReq miss cycles
system.l2.ReadCleanReq_accesses::.cpu.inst          747                       # number of ReadCleanReq accesses(hits+misses)
system.l2.ReadCleanReq_accesses::total            747                       # number of ReadCleanReq accesses(hits+misses)
system.l2.ReadCleanReq_miss_rate::.cpu.inst     0.894244                       # miss rate for ReadCleanReq accesses
system.l2.ReadCleanReq_miss_rate::total      0.894244                       # miss rate for ReadCleanReq accesses
system.l2.ReadCleanReq_avg_miss_latency::.cpu.inst 78407.934132                       # average ReadCleanReq miss latency
system.l2.ReadCleanReq_avg_miss_latency::total 78407.934132                       # average ReadCleanReq miss latency
system.l2.ReadCleanReq_mshr_misses::.cpu.inst          668                       # number of ReadCleanReq MSHR misses
system.l2.ReadCleanReq_mshr_misses::total          668                       # number of ReadCleanReq MSHR misses
system.l2.ReadCleanReq_mshr_miss_latency::.cpu.inst     45696500                       # number of ReadCleanReq MSHR miss cycles
system.l2.ReadCleanReq_mshr_miss_latency::total     45696500                       # number of ReadCleanReq MSHR miss cycles
system.l2.ReadCleanReq_mshr_miss_rate::.cpu.inst     0.894244                       # mshr miss rate for ReadCleanReq accesses
system.l2.ReadCleanReq_mshr_miss_rate::total     0.894244                       # mshr miss rate for ReadCleanReq accesses
system.l2.ReadCleanReq_avg_mshr_miss_latency::.cpu.inst 68407.934132                       # average ReadCleanReq mshr miss latency
system.l2.ReadCleanReq_avg_mshr_miss_latency::total 68407.934132                       # average ReadCleanReq mshr miss latency
system.l2.ReadSharedReq_hits::.cpu.data        344487                       # number of ReadSharedReq hits
system.l2.ReadSharedReq_hits::total            344487                       # number of ReadSharedReq hits
system.l2.ReadSharedReq_misses::.cpu.data        80844                       # number of ReadSharedReq misses
system.l2.ReadSharedReq_misses::total           80844                       # number of ReadSharedReq misses
system.l2.ReadSharedReq_miss_latency::.cpu.data   6536848000                       # number of ReadSharedReq miss cycles
system.l2.ReadSharedReq_miss_latency::total   6536848000                       # number of ReadSharedReq miss cycles
system.l2.ReadSharedReq_accesses::.cpu.data       425331                       # number of ReadSharedReq accesses(hits+misses)
system.l2.ReadSharedReq_accesses::total        425331                       # number of ReadSharedReq accesses(hits+misses)
system.l2.ReadSharedReq_miss_rate::.cpu.data     0.190073                       # miss rate for ReadSharedReq accesses
system.l2.ReadSharedReq_miss_rate::total     0.190073                       # miss rate for ReadSharedReq accesses
system.l2.ReadSharedReq_avg_miss_latency::.cpu.data 80857.552818                       # average ReadSharedReq miss latency
system.l2.ReadSharedReq_avg_miss_latency::total 80857.552818                       # average ReadSharedReq miss latency
system.l2.ReadSharedReq_mshr_hits::.cpu.data            4                       # number of ReadSharedReq MSHR hits
system.l2.ReadSharedReq_mshr_hits::total            4                       # number of ReadSharedReq MSHR hits
system.l2.ReadSharedReq_mshr_misses::.cpu.data        80840                       # number of ReadSharedReq MSHR misses
system.l2.ReadSharedReq_mshr_misses::total        80840                       # number of ReadSharedReq MSHR misses
system.l2.ReadSharedReq_mshr_miss_latency::.cpu.data   5728204000                       # number of ReadSharedReq MSHR miss cycles
system.l2.ReadSharedReq_mshr_miss_latency::total   5728204000                       # number of ReadSharedReq MSHR miss cycles
system.l2.ReadSharedReq_mshr_miss_rate::.cpu.data     0.190064                       # mshr miss rate for ReadSharedReq accesses
system.l2.ReadSharedReq_mshr_miss_rate::total     0.190064                       # mshr miss rate for ReadSharedReq accesses
system.l2.ReadSharedReq_avg_mshr_miss_latency::.cpu.data 70858.535379                       # average ReadSharedReq mshr miss latency
system.l2.ReadSharedReq_avg_mshr_miss_latency::total 70858.535379                       # average ReadSharedReq mshr miss latency
system.l2.tags.pwrStateResidencyTicks::UNDEFINED  85437555500                       # Cumulative time (in ticks) in various power states
system.l2.tags.tagsinuse                 16034.868753                       # Cycle average of tags in use
system.l2.tags.total_refs                     1423295                       # Total number of references to valid blocks.
system.l2.tags.sampled_refs                    225650                       # Sample count of references to valid blocks.
system.l2.tags.avg_refs                      6.307534                       # Average number of references to valid blocks.
system.l2.tags.warmup_cycle                     77000                       # Cycle when the warmup percentage was hit.
system.l2.tags.occ_blocks::.writebacks      36.495751                       # Average occupied blocks per requestor
system.l2.tags.occ_blocks::.cpu.inst        57.336868                       # Average occupied blocks per requestor
system.l2.tags.occ_blocks::.cpu.data     15941.036135                       # Average occupied blocks per requestor
system.l2.tags.occ_percent::.writebacks      0.002228                       # Average percentage of cache occupancy
system.l2.tags.occ_percent::.cpu.inst        0.003500                       # Average percentage of cache occupancy
system.l2.tags.occ_percent::.cpu.data        0.972964                       # Average percentage of cache occupancy
system.l2.tags.occ_percent::total            0.978691                       # Average percentage of cache occupancy
system.l2.tags.occ_task_id_blocks::1024         16384                       # Occupied blocks per task id
system.l2.tags.age_task_id_blocks_1024::0          114                       # Occupied blocks per task id
system.l2.tags.age_task_id_blocks_1024::1          169                       # Occupied blocks per task id
system.l2.tags.age_task_id_blocks_1024::2         2505                       # Occupied blocks per task id
system.l2.tags.age_task_id_blocks_1024::3        11358                       # Occupied blocks per task id
system.l2.tags.age_task_id_blocks_1024::4         2238                       # Occupied blocks per task id
system.l2.tags.occ_task_id_percent::1024            1                       # Percentage of cache occupancy per task id
system.l2.tags.tag_accesses                  22998770                       # Number of tag accesses
system.l2.tags.data_accesses                 22998770                       # Number of data accesses
system.cpu_voltage_domain.voltage                   1                       # Voltage in Volts
system.mem_ctrls.pwrStateResidencyTicks::UNDEFINED  85437555500                       # Cumulative time (in ticks) in various power states
system.mem_ctrls.bytes_read::.cpu.inst          42752                       # Number of bytes read from this memory
system.mem_ctrls.bytes_read::.cpu.data       14385664                       # Number of bytes read from this memory
system.mem_ctrls.bytes_read::total           14428416                       # Number of bytes read from this memory
system.mem_ctrls.bytes_inst_read::.cpu.inst        42752                       # Number of instructions bytes read from this memory
system.mem_ctrls.bytes_inst_read::total         42752                       # Number of instructions bytes read from this memory
system.mem_ctrls.bytes_written::.writebacks      8900288                       # Number of bytes written to this memory
system.mem_ctrls.bytes_written::total         8900288                       # Number of bytes written to this memory
system.mem_ctrls.num_reads::.cpu.inst             668                       # Number of read requests responded to by this memory
system.mem_ctrls.num_reads::.cpu.data          224776                       # Number of read requests responded to by this memory
system.mem_ctrls.num_reads::total              225444                       # Number of read requests responded to by this memory
system.mem_ctrls.num_writes::.writebacks       139067                       # Number of write requests responded to by this memory
system.mem_ctrls.num_writes::total             139067                       # Number of write requests responded to by this memory
system.mem_ctrls.bw_read::.cpu.inst            500389                       # Total read bandwidth from this memory (bytes/s)
system.mem_ctrls.bw_read::.cpu.data         168376353                       # Total read bandwidth from this memory (bytes/s)
system.mem_ctrls.bw_read::total             168876742                       # Total read bandwidth from this memory (bytes/s)
system.mem_ctrls.bw_inst_read::.cpu.inst       500389                       # Instruction read bandwidth from this memory (bytes/s)
system.mem_ctrls.bw_inst_read::total           500389                       # Instruction read bandwidth from this memory (bytes/s)
system.mem_ctrls.bw_write::.writebacks      104173018                       # Write bandwidth from this memory (bytes/s)
system.mem_ctrls.bw_write::total            104173018                       # Write bandwidth from this memory (bytes/s)
system.mem_ctrls.bw_total::.writebacks      104173018                       # Total bandwidth to/from this memory (bytes/s)
system.mem_ctrls.bw_total::.cpu.inst           500389                       # Total bandwidth to/from this memory (bytes/s)
system.mem_ctrls.bw_total::.cpu.data        168376353                       # Total bandwidth to/from this memory (bytes/s)
system.mem_ctrls.bw_total::total            273049760                       # Total bandwidth to/from this memory (bytes/s)
system.mem_ctrls.avgPriority_.writebacks::samples    139067.00                       # Average QoS priority value for accepted requests
system.mem_ctrls.avgPriority_.cpu.inst::samples       668.00                       # Average QoS priority value for accepted requests
system.mem_ctrls.avgPriority_.cpu.data::samples    224530.00                       # Average QoS priority value for accepted requests
system.mem_ctrls.priorityMinLatency      0.000000018750                       # per QoS priority minimum request to response latency (s)
system.mem_ctrls.priorityMaxLatency      0.010621202500                       # per QoS priority maximum request to response latency (s)
system.mem_ctrls.numReadWriteTurnArounds         8288                       # Number of turnarounds from READ to WRITE
system.mem_ctrls.numWriteReadTurnArounds         8288                       # Number of turnarounds from WRITE to READ
system.mem_ctrls.numStayReadState              599859                       # Number of times bus staying in READ state
system.mem_ctrls.numStayWriteState             130956                       # Number of times bus staying in WRITE state
system.mem_ctrls.readReqs                      225444                       # Number of read requests accepted
system.mem_ctrls.writeReqs                     139067                       # Number of write requests accepted
system.mem_ctrls.readBursts                    225444                       # Number of DRAM read bursts, including those serviced by the write queue
system.mem_ctrls.writeBursts                   139067                       # Number of DRAM write bursts, including those merged in the write queue
system.mem_ctrls.servicedByWrQ                    246                       # Number of DRAM read bursts serviced by the write queue
system.mem_ctrls.mergedWrBursts                     0                       # Number of DRAM write bursts merged with an existing one
system.mem_ctrls.neitherReadNorWriteReqs            0                       # Number of requests that are neither read nor write
system.mem_ctrls.perBankRdBursts::0             14396                       # Per bank write bursts
system.mem_ctrls.perBankRdBursts::1             14075                       # Per bank write bursts
system.mem_ctrls.perBankRdBursts::2             14146                       # Per bank write bursts
system.mem_ctrls.perBankRdBursts::3             13994                       # Per bank write bursts
system.mem_ctrls.perBankRdBursts::4             14207                       # Per bank write bursts
system.mem_ctrls.perBankRdBursts::5             14191                       # Per bank write bursts
system.mem_ctrls.perBankRdBursts::6             13776                       # Per bank write bursts
system.mem_ctrls.perBankRdBursts::7             14037                       # Per bank write bursts
system.mem_ctrls.perBankRdBursts::8             13945                       # Per bank write bursts
system.mem_ctrls.perBankRdBursts::9             13940                       # Per bank write bursts
system.mem_ctrls.perBankRdBursts::10            13934                       # Per bank write bursts
system.mem_ctrls.perBankRdBursts::11            13746                       # Per bank write bursts
system.mem_ctrls.perBankRdBursts::12            14194                       # Per bank write bursts
system.mem_ctrls.perBankRdBursts::13            14387                       # Per bank write bursts
system.mem_ctrls.perBankRdBursts::14            14072                       # Per bank write bursts
system.mem_ctrls.perBankRdBursts::15            14158                       # Per bank write bursts
system.mem_ctrls.perBankWrBursts::0              8751                       # Per bank write bursts
system.mem_ctrls.perBankWrBursts::1              8543                       # Per bank write bursts
system.mem_ctrls.perBankWrBursts::2              8716                       # Per bank write bursts
system.mem_ctrls.perBankWrBursts::3              8666                       # Per bank write bursts
system.mem_ctrls.perBankWrBursts::4              8976                       # Per bank write bursts
system.mem_ctrls.perBankWrBursts::5              8951                       # Per bank write bursts
system.mem_ctrls.perBankWrBursts::6              8486                       # Per bank write bursts
system.mem_ctrls.perBankWrBursts::7              8637                       # Per bank write bursts
system.mem_ctrls.perBankWrBursts::8              8545                       # Per bank write bursts
system.mem_ctrls.perBankWrBursts::9              8610                       # Per bank write bursts
system.mem_ctrls.perBankWrBursts::10             8646                       # Per bank write bursts
system.mem_ctrls.perBankWrBursts::11             8535                       # Per bank write bursts
system.mem_ctrls.perBankWrBursts::12             8792                       # Per bank write bursts
system.mem_ctrls.perBankWrBursts::13             8909                       # Per bank write bursts
system.mem_ctrls.perBankWrBursts::14             8593                       # Per bank write bursts
system.mem_ctrls.perBankWrBursts::15             8686                       # Per bank write bursts
system.mem_ctrls.avgRdQLen                       1.09                       # Average read queue length when enqueuing
system.mem_ctrls.avgWrQLen                      25.39                       # Average write queue length when enqueuing
system.mem_ctrls.totQLat                   3459458250                       # Total ticks spent queuing
system.mem_ctrls.totBusLat                 1125990000                       # Total ticks spent in databus transfers
system.mem_ctrls.totMemAccLat              7681920750                       # Total ticks spent from burst creation until serviced by the DRAM
system.mem_ctrls.avgQLat                     15361.85                       # Average queueing delay per DRAM burst
system.mem_ctrls.avgBusLat                    5000.00                       # Average bus latency per DRAM burst
system.mem_ctrls.avgMemAccLat                34111.85                       # Average memory access latency per DRAM burst
system.mem_ctrls.numRdRetry                         0                       # Number of times read queue was full causing retry
system.mem_ctrls.numWrRetry                         0                       # Number of times write queue was full causing retry
system.mem_ctrls.readRowHits                   144267                       # Number of row buffer hits during reads
system.mem_ctrls.writeRowHits                   85076                       # Number of row buffer hits during writes
system.mem_ctrls.readRowHitRate                 64.06                       # Row buffer hit rate for reads
system.mem_ctrls.writeRowHitRate                61.18                       # Row buffer hit rate for writes
system.mem_ctrls.readPktSize::0                     0                       # Read request sizes (log2)
system.mem_ctrls.readPktSize::1                     0                       # Read request sizes (log2)
system.mem_ctrls.readPktSize::2                     0                       # Read request sizes (log2)
system.mem_ctrls.readPktSize::3                     0                       # Read request sizes (log2)
system.mem_ctrls.readPktSize::4                     0                       # Read request sizes (log2)
system.mem_ctrls.readPktSize::5                     0                       # Read request sizes (log2)
system.mem_ctrls.readPktSize::6                225444                       # Read request sizes (log2)
system.mem_ctrls.writePktSize::0                    0                       # Write request sizes (log2)
system.mem_ctrls.writePktSize::1                    0                       # Write request sizes (log2)
system.mem_ctrls.writePktSize::2                    0                       # Write request sizes (log2)
system.mem_ctrls.writePktSize::3                    0                       # Write request sizes (log2)
system.mem_ctrls.writePktSize::4                    0                       # Write request sizes (log2)
system.mem_ctrls.writePktSize::5                    0                       # Write request sizes (log2)
system.mem_ctrls.writePktSize::6               139067                       # Write request sizes (log2)
system.mem_ctrls.rdQLenPdf::0                  161893                       # What read queue length does an incoming req see
system.mem_ctrls.rdQLenPdf::1                   60265                       # What read queue length does an incoming req see
system.mem_ctrls.rdQLenPdf::2                    2664                       # What read queue length does an incoming req see
system.mem_ctrls.rdQLenPdf::3                     375                       # What read queue length does an incoming req see
system.mem_ctrls.rdQLenPdf::4                       1                       # What read queue length does an incoming req see
system.mem_ctrls.rdQLenPdf::5                       0                       # What read queue length does an incoming req see
system.mem_ctrls.rdQLenPdf::6                       0                       # What read queue length does an incoming req see
system.mem_ctrls.rdQLenPdf::7                       0                       # What read queue length does an incoming req see
system.mem_ctrls.rdQLenPdf::8                       0                       # What read queue length does an incoming req see
system.mem_ctrls.rdQLenPdf::9                       0                       # What read queue length does an incoming req see
system.mem_ctrls.rdQLenPdf::10                      0                       # What read queue length does an incoming req see
system.mem_ctrls.rdQLenPdf::11                      0                       # What read queue length does an incoming req see
system.mem_ctrls.rdQLenPdf::12                      0                       # What read queue length does an incoming req see
system.mem_ctrls.rdQLenPdf::13                      0                       # What read queue length does an incoming req see
system.mem_ctrls.rdQLenPdf::14                      0                       # What read queue length does an incoming req see
system.mem_ctrls.rdQLenPdf::15                      0                       # What read queue length does an incoming req see
system.mem_ctrls.rdQLenPdf::16                      0                       # What read queue length does an incoming req see
system.mem_ctrls.rdQLenPdf::17                      0                       # What read queue length does an incoming req see
system.mem_ctrls.rdQLenPdf::18                      0                       # What read queue length does an incoming req see
system.mem_ctrls.rdQLenPdf::19                      0                       # What read queue length does an incoming req see
system.mem_ctrls.rdQLenPdf::20                      0                       # What read queue length does an incoming req see
system.mem_ctrls.rdQLenPdf::21                      0                       # What read queue length does an incoming req see
system.mem_ctrls.rdQLenPdf::22                      0                       # What read queue length does an incoming req see
system.mem_ctrls.rdQLenPdf::23                      0                       # What read queue length does an incoming req see
system.mem_ctrls.rdQLenPdf::24                      0                       # What read queue length does an incoming req see
system.mem_ctrls.rdQLenPdf::25                      0                       # What read queue length does an incoming req see
system.mem_ctrls.rdQLenPdf::26                      0                       # What read queue length does an incoming req see
system.mem_ctrls.rdQLenPdf::27                      0                       # What read queue length does an incoming req see
system.mem_ctrls.rdQLenPdf::28                      0                       # What read queue length does an incoming req see
system.mem_ctrls.rdQLenPdf::29                      0                       # What read queue length does an incoming req see
system.mem_ctrls.rdQLenPdf::30                      0                       # What read queue length does an incoming req see
system.mem_ctrls.rdQLenPdf::31                      0                       # What read queue length does an incoming req see
system.mem_ctrls.wrQLenPdf::0                       1                       # What write queue length does an incoming req see
system.mem_ctrls.wrQLenPdf::1                       1                       # What write queue length does an incoming req see
system.mem_ctrls.wrQLenPdf::2                       1                       # What write queue length does an incoming req see
system.mem_ctrls.wrQLenPdf::3                       1                       # What write queue length does an incoming req see
system.mem_ctrls.wrQLenPdf::4                       1                       # What write queue length does an incoming req see
system.mem_ctrls.wrQLenPdf::5                       1                       # What write queue length does an incoming req see
system.mem_ctrls.wrQLenPdf::6                       1                       # What write queue length does an incoming req see
system.mem_ctrls.wrQLenPdf::7                       1                       # What write queue length does an incoming req see
system.mem_ctrls.wrQLenPdf::8                       1                       # What write queue length does an incoming req see
system.mem_ctrls.wrQLenPdf::9                       1                       # What write queue length does an incoming req see
system.mem_ctrls.wrQLenPdf::10                      1                       # What write queue length does an incoming req see
system.mem_ctrls.wrQLenPdf::11                      1                       # What write queue length does an incoming req see
system.mem_ctrls.wrQLenPdf::12                      1                       # What write queue length does an incoming req see
system.mem_ctrls.wrQLenPdf::13                      1                       # What write queue length does an incoming req see
system.mem_ctrls.wrQLenPdf::14                      1                       # What write queue length does an incoming req see
system.mem_ctrls.wrQLenPdf::15                   3073                       # What write queue length does an incoming req see
system.mem_ctrls.wrQLenPdf::16                   3133                       # What write queue length does an incoming req see
system.mem_ctrls.wrQLenPdf::17                   7233                       # What write queue length does an incoming req see
system.mem_ctrls.wrQLenPdf::18                   8353                       # What write queue length does an incoming req see
system.mem_ctrls.wrQLenPdf::19                   8345                       # What write queue length does an incoming req see
system.mem_ctrls.wrQLenPdf::20                   8380                       # What write queue length does an incoming req see
system.mem_ctrls.wrQLenPdf::21                   8332                       # What write queue length does an incoming req see
system.mem_ctrls.wrQLenPdf::22                   8358                       # What write queue length does an incoming req see
system.mem_ctrls.wrQLenPdf::23                   8355                       # What write queue length does an incoming req see
system.mem_ctrls.wrQLenPdf::24                   8394                       # What write queue length does an incoming req see
system.mem_ctrls.wrQLenPdf::25                   8401                       # What write queue length does an incoming req see
system.mem_ctrls.wrQLenPdf::26                   8364                       # What write queue length does an incoming req see
system.mem_ctrls.wrQLenPdf::27                   8334                       # What write queue length does an incoming req see
system.mem_ctrls.wrQLenPdf::28                   8773                       # What write queue length does an incoming req see
system.mem_ctrls.wrQLenPdf::29                   8334                       # What write queue length does an incoming req see
system.mem_ctrls.wrQLenPdf::30                   8291                       # What write queue length does an incoming req see
system.mem_ctrls.wrQLenPdf::31                   8308                       # What write queue length does an incoming req see
system.mem_ctrls.wrQLenPdf::32                   8289                       # What write queue length does an incoming req see
system.mem_ctrls.wrQLenPdf::33                      2                       # What write queue length does an incoming req see
system.mem_ctrls.wrQLenPdf::34                      0                       # What write queue length does an incoming req see
system.mem_ctrls.wrQLenPdf::35                      0                       # What write queue length does an incoming req see
system.mem_ctrls.wrQLenPdf::36                      0                       # What write queue length does an incoming req see
system.mem_ctrls.wrQLenPdf::37                      0                       # What write queue length does an incoming req see
system.mem_ctrls.wrQLenPdf::38                      0                       # What write queue length does an incoming req see
system.mem_ctrls.wrQLenPdf::39                      0                       # What write queue length does an incoming req see
system.mem_ctrls.wrQLenPdf::40                      0                       # What write queue length does an incoming req see
system.mem_ctrls.wrQLenPdf::41                      0                       # What write queue length does an incoming req see
system.mem_ctrls.wrQLenPdf::42                      0                       # What write queue length does an incoming req see
system.mem_ctrls.wrQLenPdf::43                      0                       # What write queue length does an incoming req see
system.mem_ctrls.wrQLenPdf::44                      0                       # What write queue length does an incoming req see
system.mem_ctrls.wrQLenPdf::45                      0                       # What write queue length does an incoming req see
system.mem_ctrls.wrQLenPdf::46                      0                       # What write queue length does an incoming req see
system.mem_ctrls.wrQLenPdf::47                      0                       # What write queue length does an incoming req see
system.mem_ctrls.wrQLenPdf::48                      0                       # What write queue length does an incoming req see
system.mem_ctrls.wrQLenPdf::49                      0                       # What write queue length does an incoming req see
system.mem_ctrls.wrQLenPdf::50                      0                       # What write queue length does an incoming req see
system.mem_ctrls.wrQLenPdf::51                      0                       # What write queue length does an incoming req see
system.mem_ctrls.wrQLenPdf::52                      0                       # What write queue length does an incoming req see
system.mem_ctrls.wrQLenPdf::53                      0                       # What write queue length does an incoming req see
system.mem_ctrls.wrQLenPdf::54                      0                       # What write queue length does an incoming req see
system.mem_ctrls.wrQLenPdf::55                      0                       # What write queue length does an incoming req see
system.mem_ctrls.wrQLenPdf::56                      0                       # What write queue length does an incoming req see
system.mem_ctrls.wrQLenPdf::57                      0                       # What write queue length does an incoming req see
system.mem_ctrls.wrQLenPdf::58                      0                       # What write queue length does an incoming req see
system.mem_ctrls.wrQLenPdf::59                      0                       # What write queue length does an incoming req see
system.mem_ctrls.wrQLenPdf::60                      0                       # What write queue length does an incoming req see
system.mem_ctrls.wrQLenPdf::61                      0                       # What write queue length does an incoming req see
system.mem_ctrls.wrQLenPdf::62                      0                       # What write queue length does an incoming req see
system.mem_ctrls.wrQLenPdf::63                      0                       # What write queue length does an incoming req see
system.mem_ctrls.bytesPerActivate::samples       134882                       # Bytes accessed per row activation
system.mem_ctrls.bytesPerActivate::mean    172.819739                       # Bytes accessed per row activation
system.mem_ctrls.bytesPerActivate::gmean   103.830096                       # Bytes accessed per row activation
system.mem_ctrls.bytesPerActivate::stdev   241.211548                       # Bytes accessed per row activation
system.mem_ctrls.bytesPerActivate::0-127        93021     68.96%     68.96% # Bytes accessed per row activation
system.mem_ctrls.bytesPerActivate::128-255        18991     14.08%     83.04% # Bytes accessed per row activation
system.mem_ctrls.bytesPerActivate::256-383         3223      2.39%     85.43% # Bytes accessed per row activation
system.mem_ctrls.bytesPerActivate::384-511         1630      1.21%     86.64% # Bytes accessed per row activation
system.mem_ctrls.bytesPerActivate::512-639         9665      7.17%     93.81% # Bytes accessed per row activation
system.mem_ctrls.bytesPerActivate::640-767          728      0.54%     94.35% # Bytes accessed per row activation
system.mem_ctrls.bytesPerActivate::768-895          596      0.44%     94.79% # Bytes accessed per row activation
system.mem_ctrls.bytesPerActivate::896-1023          598      0.44%     95.23% # Bytes accessed per row activation
system.mem_ctrls.bytesPerActivate::1024-1151         6430      4.77%    100.00% # Bytes accessed per row activation
system.mem_ctrls.bytesPerActivate::total       134882                       # Bytes accessed per row activation
system.mem_ctrls.rdPerTurnAround::samples         8288                       # Reads before turning the bus around for writes
system.mem_ctrls.rdPerTurnAround::mean      27.170005                       # Reads before turning the bus around for writes
system.mem_ctrls.rdPerTurnAround::gmean     22.946944                       # Reads before turning the bus around for writes
system.mem_ctrls.rdPerTurnAround::stdev     52.763774                       # Reads before turning the bus around for writes
system.mem_ctrls.rdPerTurnAround::0-127          8191     98.83%     98.83% # Reads before turning the bus around for writes
system.mem_ctrls.rdPerTurnAround::128-255           20      0.24%     99.07% # Reads before turning the bus around for writes
system.mem_ctrls.rdPerTurnAround::256-383           68      0.82%     99.89% # Reads before turning the bus around for writes
system.mem_ctrls.rdPerTurnAround::512-639            1      0.01%     99.90% # Reads before turning the bus around for writes
system.mem_ctrls.rdPerTurnAround::640-767            2      0.02%     99.93% # Reads before turning the bus around for writes
[...]
system.cpu.icache.ReadReq_mshr_misses::.cpu.inst          747                       # number of ReadReq MSHR misses
system.cpu.icache.ReadReq_mshr_misses::total          747                       # number of ReadReq MSHR misses
system.cpu.icache.ReadReq_mshr_miss_latency::.cpu.inst     54346500                       # number of ReadReq MSHR miss cycles
system.cpu.icache.ReadReq_mshr_miss_latency::total     54346500                       # number of ReadReq MSHR miss cycles
system.cpu.icache.ReadReq_mshr_miss_rate::.cpu.inst     0.000077                       # mshr miss rate for ReadReq accesses
system.cpu.icache.ReadReq_mshr_miss_rate::total     0.000077                       # mshr miss rate for ReadReq accesses
system.cpu.icache.ReadReq_avg_mshr_miss_latency::.cpu.inst 72753.012048                       # average ReadReq mshr miss latency
system.cpu.icache.ReadReq_avg_mshr_miss_latency::total 72753.012048                       # average ReadReq mshr miss latency
system.cpu.icache.tags.pwrStateResidencyTicks::UNDEFINED  85437555500                       # Cumulative time (in ticks) in various power states
system.cpu.icache.tags.tagsinuse           361.425486                       # Cycle average of tags in use
system.cpu.icache.tags.total_refs             9663412                       # Total number of references to valid blocks.
system.cpu.icache.tags.sampled_refs               747                       # Sample count of references to valid blocks.
system.cpu.icache.tags.avg_refs          12936.294511                       # Average number of references to valid blocks.
system.cpu.icache.tags.warmup_cycle             87500                       # Cycle when the warmup percentage was hit.
system.cpu.icache.tags.occ_blocks::.cpu.inst   361.425486                       # Average occupied blocks per requestor
system.cpu.icache.tags.occ_percent::.cpu.inst     0.705909                       # Average percentage of cache occupancy
system.cpu.icache.tags.occ_percent::total     0.705909                       # Average percentage of cache occupancy
system.cpu.icache.tags.occ_task_id_blocks::1024          445                       # Occupied blocks per task id
system.cpu.icache.tags.age_task_id_blocks_1024::3          106                       # Occupied blocks per task id
system.cpu.icache.tags.age_task_id_blocks_1024::4          339                       # Occupied blocks per task id
system.cpu.icache.tags.occ_task_id_percent::1024     0.869141                       # Percentage of cache occupancy per task id
system.cpu.icache.tags.tag_accesses          19327571                       # Number of tag accesses
system.cpu.icache.tags.data_accesses         19327571                       # Number of data accesses
system.cpu.dtb.walker.pwrStateResidencyTicks::UNDEFINED  85437555500                       # Cumulative time (in ticks) in various power states
system.cpu.dtb.stage2_mmu.stage2_tlb.walker.pwrStateResidencyTicks::UNDEFINED  85437555500                       # Cumulative time (in ticks) in various power states
system.cpu.dcache.pwrStateResidencyTicks::UNDEFINED  85437555500                       # Cumulative time (in ticks) in various power states
system.cpu.dcache.demand_hits::.cpu.data     51308287                       # number of demand (read+write) hits
system.cpu.dcache.demand_hits::total         51308287                       # number of demand (read+write) hits
system.cpu.dcache.overall_hits::.cpu.data     51308796                       # number of overall hits
system.cpu.dcache.overall_hits::total        51308796                       # number of overall hits
system.cpu.dcache.demand_misses::.cpu.data       762665                       # number of demand (read+write) misses
system.cpu.dcache.demand_misses::total         762665                       # number of demand (read+write) misses
system.cpu.dcache.overall_misses::.cpu.data       770575                       # number of overall misses
system.cpu.dcache.overall_misses::total        770575                       # number of overall misses
system.cpu.dcache.demand_miss_latency::.cpu.data  27077213993                       # number of demand (read+write) miss cycles
system.cpu.dcache.demand_miss_latency::total  27077213993                       # number of demand (read+write) miss cycles
system.cpu.dcache.overall_miss_latency::.cpu.data  27077213993                       # number of overall miss cycles
system.cpu.dcache.overall_miss_latency::total  27077213993                       # number of overall miss cycles
system.cpu.dcache.demand_accesses::.cpu.data     52070952                       # number of demand (read+write) accesses
system.cpu.dcache.demand_accesses::total     52070952                       # number of demand (read+write) accesses
system.cpu.dcache.overall_accesses::.cpu.data     52079371                       # number of overall (read+write) accesses
system.cpu.dcache.overall_accesses::total     52079371                       # number of overall (read+write) accesses
system.cpu.dcache.demand_miss_rate::.cpu.data     0.014647                       # miss rate for demand accesses
system.cpu.dcache.demand_miss_rate::total     0.014647                       # miss rate for demand accesses
system.cpu.dcache.overall_miss_rate::.cpu.data     0.014796                       # miss rate for overall accesses
system.cpu.dcache.overall_miss_rate::total     0.014796                       # miss rate for overall accesses
system.cpu.dcache.demand_avg_miss_latency::.cpu.data 35503.417612                       # average overall miss latency
system.cpu.dcache.demand_avg_miss_latency::total 35503.417612                       # average overall miss latency
system.cpu.dcache.overall_avg_miss_latency::.cpu.data 35138.972836                       # average overall miss latency
system.cpu.dcache.overall_avg_miss_latency::total 35138.972836                       # average overall miss latency
system.cpu.dcache.blocked_cycles::no_mshrs       192790                       # number of cycles access was blocked
system.cpu.dcache.blocked_cycles::no_targets            0                       # number of cycles access was blocked
system.cpu.dcache.blocked::no_mshrs              3310                       # number of cycles access was blocked
system.cpu.dcache.blocked::no_targets               0                       # number of cycles access was blocked
system.cpu.dcache.avg_blocked_cycles::no_mshrs    58.244713                       # average number of cycles each access was blocked
system.cpu.dcache.avg_blocked_cycles::no_targets          nan                       # average number of cycles each access was blocked
system.cpu.dcache.writebacks::.writebacks       626651                       # number of writebacks
system.cpu.dcache.writebacks::total            626651                       # number of writebacks
system.cpu.dcache.demand_mshr_hits::.cpu.data        58862                       # number of demand (read+write) MSHR hits
system.cpu.dcache.demand_mshr_hits::total        58862                       # number of demand (read+write) MSHR hits
system.cpu.dcache.overall_mshr_hits::.cpu.data        58862                       # number of overall MSHR hits
system.cpu.dcache.overall_mshr_hits::total        58862                       # number of overall MSHR hits
system.cpu.dcache.demand_mshr_misses::.cpu.data       703803                       # number of demand (read+write) MSHR misses
system.cpu.dcache.demand_mshr_misses::total       703803                       # number of demand (read+write) MSHR misses
system.cpu.dcache.overall_mshr_misses::.cpu.data       711708                       # number of overall MSHR misses
system.cpu.dcache.overall_mshr_misses::total       711708                       # number of overall MSHR misses
system.cpu.dcache.demand_mshr_miss_latency::.cpu.data  24749560000                       # number of demand (read+write) MSHR miss cycles
system.cpu.dcache.demand_mshr_miss_latency::total  24749560000                       # number of demand (read+write) MSHR miss cycles
system.cpu.dcache.overall_mshr_miss_latency::.cpu.data  25367054499                       # number of overall MSHR miss cycles
system.cpu.dcache.overall_mshr_miss_latency::total  25367054499                       # number of overall MSHR miss cycles
system.cpu.dcache.demand_mshr_miss_rate::.cpu.data     0.013516                       # mshr miss rate for demand accesses
system.cpu.dcache.demand_mshr_miss_rate::total     0.013516                       # mshr miss rate for demand accesses
system.cpu.dcache.overall_mshr_miss_rate::.cpu.data     0.013666                       # mshr miss rate for overall accesses
system.cpu.dcache.overall_mshr_miss_rate::total     0.013666                       # mshr miss rate for overall accesses
system.cpu.dcache.demand_avg_mshr_miss_latency::.cpu.data 35165.465336                       # average overall mshr miss latency
system.cpu.dcache.demand_avg_mshr_miss_latency::total 35165.465336                       # average overall mshr miss latency
system.cpu.dcache.overall_avg_mshr_miss_latency::.cpu.data 35642.502963                       # average overall mshr miss latency
system.cpu.dcache.overall_avg_mshr_miss_latency::total 35642.502963                       # average overall mshr miss latency
system.cpu.dcache.replacements                 710683                       # number of replacements
system.cpu.dcache.ReadReq_hits::.cpu.data     40703152                       # number of ReadReq hits
system.cpu.dcache.ReadReq_hits::total        40703152                       # number of ReadReq hits
system.cpu.dcache.ReadReq_misses::.cpu.data       417709                       # number of ReadReq misses
system.cpu.dcache.ReadReq_misses::total        417709                       # number of ReadReq misses
system.cpu.dcache.ReadReq_miss_latency::.cpu.data  10605535500                       # number of ReadReq miss cycles
system.cpu.dcache.ReadReq_miss_latency::total  10605535500                       # number of ReadReq miss cycles
system.cpu.dcache.ReadReq_accesses::.cpu.data     41120861                       # number of ReadReq accesses(hits+misses)
system.cpu.dcache.ReadReq_accesses::total     41120861                       # number of ReadReq accesses(hits+misses)
system.cpu.dcache.ReadReq_miss_rate::.cpu.data     0.010158                       # miss rate for ReadReq accesses
system.cpu.dcache.ReadReq_miss_rate::total     0.010158                       # miss rate for ReadReq accesses
system.cpu.dcache.ReadReq_avg_miss_latency::.cpu.data 25389.770151                       # average ReadReq miss latency
system.cpu.dcache.ReadReq_avg_miss_latency::total 25389.770151                       # average ReadReq miss latency
system.cpu.dcache.ReadReq_mshr_hits::.cpu.data          283                       # number of ReadReq MSHR hits
system.cpu.dcache.ReadReq_mshr_hits::total          283                       # number of ReadReq MSHR hits
system.cpu.dcache.ReadReq_mshr_misses::.cpu.data       417426                       # number of ReadReq MSHR misses
system.cpu.dcache.ReadReq_mshr_misses::total       417426                       # number of ReadReq MSHR misses
system.cpu.dcache.ReadReq_mshr_miss_latency::.cpu.data  10177524000                       # number of ReadReq MSHR miss cycles
system.cpu.dcache.ReadReq_mshr_miss_latency::total  10177524000                       # number of ReadReq MSHR miss cycles
system.cpu.dcache.ReadReq_mshr_miss_rate::.cpu.data     0.010151                       # mshr miss rate for ReadReq accesses
system.cpu.dcache.ReadReq_mshr_miss_rate::total     0.010151                       # mshr miss rate for ReadReq accesses
system.cpu.dcache.ReadReq_avg_mshr_miss_latency::.cpu.data 24381.624527                       # average ReadReq mshr miss latency
system.cpu.dcache.ReadReq_avg_mshr_miss_latency::total 24381.624527                       # average ReadReq mshr miss latency
system.cpu.dcache.WriteReq_hits::.cpu.data     10605135                       # number of WriteReq hits
system.cpu.dcache.WriteReq_hits::total       10605135                       # number of WriteReq hits
system.cpu.dcache.WriteReq_misses::.cpu.data       344956                       # number of WriteReq misses
system.cpu.dcache.WriteReq_misses::total       344956                       # number of WriteReq misses
system.cpu.dcache.WriteReq_miss_latency::.cpu.data  16471678493                       # number of WriteReq miss cycles
system.cpu.dcache.WriteReq_miss_latency::total  16471678493                       # number of WriteReq miss cycles
system.cpu.dcache.WriteReq_accesses::.cpu.data     10950091                       # number of WriteReq accesses(hits+misses)
system.cpu.dcache.WriteReq_accesses::total     10950091                       # number of WriteReq accesses(hits+misses)
system.cpu.dcache.WriteReq_miss_rate::.cpu.data     0.031503                       # miss rate for WriteReq accesses
system.cpu.dcache.WriteReq_miss_rate::total     0.031503                       # miss rate for WriteReq accesses
system.cpu.dcache.WriteReq_avg_miss_latency::.cpu.data 47750.085498                       # average WriteReq miss latency
system.cpu.dcache.WriteReq_avg_miss_latency::total 47750.085498                       # average WriteReq miss latency
system.cpu.dcache.WriteReq_mshr_hits::.cpu.data        58579                       # number of WriteReq MSHR hits
system.cpu.dcache.WriteReq_mshr_hits::total        58579                       # number of WriteReq MSHR hits
system.cpu.dcache.WriteReq_mshr_misses::.cpu.data       286377                       # number of WriteReq MSHR misses
system.cpu.dcache.WriteReq_mshr_misses::total       286377                       # number of WriteReq MSHR misses
system.cpu.dcache.WriteReq_mshr_miss_latency::.cpu.data  14572036000                       # number of WriteReq MSHR miss cycles
system.cpu.dcache.WriteReq_mshr_miss_latency::total  14572036000                       # number of WriteReq MSHR miss cycles
system.cpu.dcache.WriteReq_mshr_miss_rate::.cpu.data     0.026153                       # mshr miss rate for WriteReq accesses
system.cpu.dcache.WriteReq_mshr_miss_rate::total     0.026153                       # mshr miss rate for WriteReq accesses
system.cpu.dcache.WriteReq_avg_mshr_miss_latency::.cpu.data 50884.100329                       # average WriteReq mshr miss latency
system.cpu.dcache.WriteReq_avg_mshr_miss_latency::total 50884.100329                       # average WriteReq mshr miss latency
system.cpu.dcache.SoftPFReq_hits::.cpu.data          509                       # number of SoftPFReq hits
system.cpu.dcache.SoftPFReq_hits::total           509                       # number of SoftPFReq hits
system.cpu.dcache.SoftPFReq_misses::.cpu.data         7910                       # number of SoftPFReq misses
system.cpu.dcache.SoftPFReq_misses::total         7910                       # number of SoftPFReq misses
system.cpu.dcache.SoftPFReq_accesses::.cpu.data         8419                       # number of SoftPFReq accesses(hits+misses)
system.cpu.dcache.SoftPFReq_accesses::total         8419                       # number of SoftPFReq accesses(hits+misses)
system.cpu.dcache.SoftPFReq_miss_rate::.cpu.data     0.939542                       # miss rate for SoftPFReq accesses
system.cpu.dcache.SoftPFReq_miss_rate::total     0.939542                       # miss rate for SoftPFReq accesses
system.cpu.dcache.SoftPFReq_mshr_misses::.cpu.data         7905                       # number of SoftPFReq MSHR misses
system.cpu.dcache.SoftPFReq_mshr_misses::total         7905                       # number of SoftPFReq MSHR misses
system.cpu.dcache.SoftPFReq_mshr_miss_latency::.cpu.data    617494499                       # number of SoftPFReq MSHR miss cycles
system.cpu.dcache.SoftPFReq_mshr_miss_latency::total    617494499                       # number of SoftPFReq MSHR miss cycles
system.cpu.dcache.SoftPFReq_mshr_miss_rate::.cpu.data     0.938948                       # mshr miss rate for SoftPFReq accesses
system.cpu.dcache.SoftPFReq_mshr_miss_rate::total     0.938948                       # mshr miss rate for SoftPFReq accesses
system.cpu.dcache.SoftPFReq_avg_mshr_miss_latency::.cpu.data 78114.421126                       # average SoftPFReq mshr miss latency
system.cpu.dcache.SoftPFReq_avg_mshr_miss_latency::total 78114.421126                       # average SoftPFReq mshr miss latency
system.cpu.dcache.LoadLockedReq_hits::.cpu.data           38                       # number of LoadLockedReq hits
system.cpu.dcache.LoadLockedReq_hits::total           38                       # number of LoadLockedReq hits
system.cpu.dcache.LoadLockedReq_accesses::.cpu.data           38                       # number of LoadLockedReq accesses(hits+misses)
system.cpu.dcache.LoadLockedReq_accesses::total           38                       # number of LoadLockedReq accesses(hits+misses)
system.cpu.dcache.StoreCondReq_hits::.cpu.data           38                       # number of StoreCondReq hits
system.cpu.dcache.StoreCondReq_hits::total           38                       # number of StoreCondReq hits
system.cpu.dcache.StoreCondReq_accesses::.cpu.data           38                       # number of StoreCondReq accesses(hits+misses)
system.cpu.dcache.StoreCondReq_accesses::total           38                       # number of StoreCondReq accesses(hits+misses)
system.cpu.dcache.tags.pwrStateResidencyTicks::UNDEFINED  85437555500                       # Cumulative time (in ticks) in various power states
system.cpu.dcache.tags.tagsinuse          1008.439961                       # Cycle average of tags in use
system.cpu.dcache.tags.total_refs            52020579                       # Total number of references to valid blocks.
system.cpu.dcache.tags.sampled_refs            711707                       # Sample count of references to valid blocks.
system.cpu.dcache.tags.avg_refs             73.092690                       # Average number of references to valid blocks.
system.cpu.dcache.tags.warmup_cycle            176500                       # Cycle when the warmup percentage was hit.
system.cpu.dcache.tags.occ_blocks::.cpu.data  1008.439961                       # Average occupied blocks per requestor
system.cpu.dcache.tags.occ_percent::.cpu.data     0.984805                       # Average percentage of cache occupancy
system.cpu.dcache.tags.occ_percent::total     0.984805                       # Average percentage of cache occupancy
system.cpu.dcache.tags.occ_task_id_blocks::1024         1024                       # Occupied blocks per task id
system.cpu.dcache.tags.age_task_id_blocks_1024::0          201                       # Occupied blocks per task id
system.cpu.dcache.tags.age_task_id_blocks_1024::1          361                       # Occupied blocks per task id
system.cpu.dcache.tags.age_task_id_blocks_1024::2          460                       # Occupied blocks per task id
system.cpu.dcache.tags.age_task_id_blocks_1024::3            1                       # Occupied blocks per task id
system.cpu.dcache.tags.age_task_id_blocks_1024::4            1                       # Occupied blocks per task id
system.cpu.dcache.tags.occ_task_id_percent::1024            1                       # Percentage of cache occupancy per task id
system.cpu.dcache.tags.tag_accesses         104870601                       # Number of tag accesses
system.cpu.dcache.tags.data_accesses        104870601                       # Number of data accesses
system.cpu.itb.walker.pwrStateResidencyTicks::UNDEFINED  85437555500                       # Cumulative time (in ticks) in various power states
system.cpu.itb.stage2_mmu.stage2_tlb.walker.pwrStateResidencyTicks::UNDEFINED  85437555500                       # Cumulative time (in ticks) in various power states

---------- End Simulation Statistics   ----------
