
---------- Begin Simulation Statistics ----------
final_tick                                82381852000                       # Number of ticks from beginning of simulation (restored from checkpoints and never reset)
host_inst_rate                                 376828                       # Simulator instruction rate (inst/s)
host_mem_usage                                 693808                       # Number of bytes of host memory used
host_op_rate                                   377568                       # Simulator op (including micro ops) rate (op/s)
host_seconds                                   265.37                       # Real time elapsed on the host
host_tick_rate                              310437904                       # Simulator tick rate (ticks/s)
sim_freq                                 1000000000000                       # Frequency of simulated ticks
sim_insts                                   100000001                       # Number of instructions simulated
sim_ops                                     100196370                       # Number of ops (including micro ops) simulated
sim_seconds                                  0.082382                       # Number of seconds simulated
sim_ticks                                 82381852000                       # Number of ticks simulated
system.cpu.branchPred.BTBCorrect                    0                       # Number of correct BTB predictions (this stat may not work properly.
system.cpu.branchPred.BTBHitPct             99.618093                       # BTB Hit Percentage
system.cpu.branchPred.BTBHits                 2095621                       # Number of BTB hits
system.cpu.branchPred.BTBLookups              2103655                       # Number of BTB lookups
system.cpu.branchPred.RASInCorrect                  6                       # Number of incorrect RAS predictions.
system.cpu.branchPred.condIncorrect             81391                       # Number of conditional branches incorrect
system.cpu.branchPred.condPredicted           3728116                       # Number of conditional branches predicted
system.cpu.branchPred.indirectHits                293                       # Number of indirect target hits.
system.cpu.branchPred.indirectLookups             998                       # Number of indirect predictor lookups.
system.cpu.branchPred.indirectMisses              705                       # Number of indirect misses.
system.cpu.branchPred.lookups                 4478232                       # Number of BP lookups
system.cpu.branchPred.usedRAS                   65355                       # Number of times the RAS was used to get a target.
system.cpu.branchPredindirectMispredicted          168                       # Number of mispredicted indirect branches.
system.cpu.committedInsts                   100000001                       # Number of instructions committed
system.cpu.committedOps                     100196370                       # Number of ops (including micro ops) committed
system.cpu.cpi                               1.647637                       # CPI: cycles per instruction
system.cpu.discardedOps                        190807                       # Number of ops (including micro ops) which were discarded before commit
system.cpu.dtb.accesses                             0                       # DTB accesses
system.cpu.dtb.align_faults                         0                       # Number of TLB faults due to alignment restrictions
system.cpu.dtb.domain_faults                        0                       # Number of TLB faults due to domain restrictions
system.cpu.dtb.flush_entries                        0                       # Number of entries that have been flushed from TLB
system.cpu.dtb.flush_tlb                            0                       # Number of times complete TLB was flushed
system.cpu.dtb.flush_tlb_asid                       0                       # Number of times TLB was flushed by ASID
system.cpu.dtb.flush_tlb_mva                        0                       # Number of times TLB was flushed by MVA
system.cpu.dtb.flush_tlb_mva_asid                   0                       # Number of times TLB was flushed by MVA & ASID
system.cpu.dtb.hits                                 0                       # DTB hits
system.cpu.dtb.inst_accesses                        0                       # ITB inst accesses
system.cpu.dtb.inst_hits                            0                       # ITB inst hits
system.cpu.dtb.inst_misses                          0                       # ITB inst misses
system.cpu.dtb.misses                               0                       # DTB misses
system.cpu.dtb.perms_faults                         0                       # Number of TLB faults due to permissions restrictions
system.cpu.dtb.prefetch_faults                      0                       # Number of TLB faults due to prefetch
system.cpu.dtb.read_accesses                        0                       # DTB read accesses
system.cpu.dtb.read_hits                            0                       # DTB read hits
system.cpu.dtb.read_misses                          0                       # DTB read misses
system.cpu.dtb.stage2_mmu.stage2_tlb.accesses            0                       # DTB accesses
system.cpu.dtb.stage2_mmu.stage2_tlb.align_faults            0                       # Number of TLB faults due to alignment restrictions
system.cpu.dtb.stage2_mmu.stage2_tlb.domain_faults            0                       # Number of TLB faults due to domain restrictions
system.cpu.dtb.stage2_mmu.stage2_tlb.flush_entries            0                       # Number of entries that have been flushed from TLB
system.cpu.dtb.stage2_mmu.stage2_tlb.flush_tlb            0                       # Number of times complete TLB was flushed
system.cpu.dtb.stage2_mmu.stage2_tlb.flush_tlb_asid            0                       # Number of times TLB was flushed by ASID
system.cpu.dtb.stage2_mmu.stage2_tlb.flush_tlb_mva            0                       # Number of times TLB was flushed by MVA
system.cpu.dtb.stage2_mmu.stage2_tlb.flush_tlb_mva_asid            0                       # Number of times TLB was flushed by MVA & ASID
system.cpu.dtb.stage2_mmu.stage2_tlb.hits            0                       # DTB hits
system.cpu.dtb.stage2_mmu.stage2_tlb.inst_accesses            0                       # ITB inst accesses
system.cpu.dtb.stage2_mmu.stage2_tlb.inst_hits            0                       # ITB inst hits
system.cpu.dtb.stage2_mmu.stage2_tlb.inst_misses            0                       # ITB inst misses
system.cpu.dtb.stage2_mmu.stage2_tlb.misses            0                       # DTB misses
system.cpu.dtb.stage2_mmu.stage2_tlb.perms_faults            0                       # Number of TLB faults due to permissions restrictions
system.cpu.dtb.stage2_mmu.stage2_tlb.prefetch_faults            0                       # Number of TLB faults due to prefetch
system.cpu.dtb.stage2_mmu.stage2_tlb.read_accesses            0                       # DTB read accesses
system.cpu.dtb.stage2_mmu.stage2_tlb.read_hits            0                       # DTB read hits
system.cpu.dtb.stage2_mmu.stage2_tlb.read_misses            0                       # DTB read misses
system.cpu.dtb.stage2_mmu.stage2_tlb.walker.walkRequestOrigin_Requested::Data            0                       # Table walker requests started/completed, data/inst
system.cpu.dtb.stage2_mmu.stage2_tlb.walker.walkRequestOrigin_Requested::Inst            0                       # Table walker requests started/completed, data/inst
system.cpu.dtb.stage2_mmu.stage2_tlb.walker.walkRequestOrigin_Requested::total            0                       # Table walker requests started/completed, data/inst
system.cpu.dtb.stage2_mmu.stage2_tlb.walker.walkRequestOrigin_Completed::Data            0                       # Table walker requests started/completed, data/inst
system.cpu.dtb.stage2_mmu.stage2_tlb.walker.walkRequestOrigin_Completed::Inst            0                       # Table walker requests started/completed, data/inst
system.cpu.dtb.stage2_mmu.stage2_tlb.walker.walkRequestOrigin_Completed::total            0                       # Table walker requests started/completed, data/inst
system.cpu.dtb.stage2_mmu.stage2_tlb.walker.walkRequestOrigin::total            0                       # Table walker requests started/completed, data/inst
system.cpu.dtb.stage2_mmu.stage2_tlb.walker.walks            0                       # Table walker walks requested
system.cpu.dtb.stage2_mmu.stage2_tlb.write_accesses            0                       # DTB write accesses
system.cpu.dtb.stage2_mmu.stage2_tlb.write_hits            0                       # DTB write hits
system.cpu.dtb.stage2_mmu.stage2_tlb.write_misses            0                       # DTB write misses
system.cpu.dtb.walker.walkRequestOrigin_Requested::Data            0                       # Table walker requests started/completed, data/inst
system.cpu.dtb.walker.walkRequestOrigin_Requested::Inst            0                       # Table walker requests started/completed, data/inst
system.cpu.dtb.walker.walkRequestOrigin_Requested::total            0                       # Table walker requests started/completed, data/inst
system.cpu.dtb.walker.walkRequestOrigin_Completed::Data            0                       # Table walker requests started/completed, data/inst
system.cpu.dtb.walker.walkRequestOrigin_Completed::Inst            0                       # Table walker requests started/completed, data/inst
system.cpu.dtb.walker.walkRequestOrigin_Completed::total            0                       # Table walker requests started/completed, data/inst
system.cpu.dtb.walker.walkRequestOrigin::total            0                       # Table walker requests started/completed, data/inst
system.cpu.dtb.walker.walks                         0                       # Table walker walks requested
system.cpu.dtb.write_accesses                       0                       # DTB write accesses
system.cpu.dtb.write_hits                           0                       # DTB write hits
system.cpu.dtb.write_misses                         0                       # DTB write misses
system.cpu.fetch2.amo_instructions                  0                       # Number of memory atomic instructions successfully decoded
system.cpu.fetch2.fp_instructions                   0                       # Number of floating point instructions successfully decoded
system.cpu.fetch2.int_instructions           42610573                       # Number of integer instructions successfully decoded
system.cpu.fetch2.load_instructions          43403308                       # Number of memory load instructions successfully decoded
system.cpu.fetch2.store_instructions         11001630                       # Number of memory store instructions successfully decoded
system.cpu.fetch2.vec_instructions                  0                       # Number of SIMD instructions successfully decoded
system.cpu.idleCycles                        32267121                       # Total number of cycles that the object has spent stopped
system.cpu.ipc                               0.606930                       # IPC: instructions per cycle
system.cpu.itb.accesses                             0                       # DTB accesses
system.cpu.itb.align_faults                         0                       # Number of TLB faults due to alignment restrictions
system.cpu.itb.domain_faults                        0                       # Number of TLB faults due to domain restrictions
system.cpu.itb.flush_entries                        0                       # Number of entries that have been flushed from TLB
system.cpu.itb.flush_tlb                            0                       # Number of times complete TLB was flushed
system.cpu.itb.flush_tlb_asid                       0                       # Number of times TLB was flushed by ASID
system.cpu.itb.flush_tlb_mva                        0                       # Number of times TLB was flushed by MVA
system.cpu.itb.flush_tlb_mva_asid                   0                       # Number of times TLB was flushed by MVA & ASID
system.cpu.itb.hits                                 0                       # DTB hits
system.cpu.itb.inst_accesses                        0                       # ITB inst accesses
system.cpu.itb.inst_hits                            0                       # ITB inst hits
system.cpu.itb.inst_misses                          0                       # ITB inst misses
system.cpu.itb.misses                               0                       # DTB misses
system.cpu.itb.perms_faults                         0                       # Number of TLB faults due to permissions restrictions
system.cpu.itb.prefetch_faults                      0                       # Number of TLB faults due to prefetch
system.cpu.itb.read_accesses                        0                       # DTB read accesses
system.cpu.itb.read_hits                            0                       # DTB read hits
system.cpu.itb.read_misses                          0                       # DTB read misses
system.cpu.itb.stage2_mmu.stage2_tlb.accesses            0                       # DTB accesses
system.cpu.itb.stage2_mmu.stage2_tlb.align_faults            0                       # Number of TLB faults due to alignment restrictions
system.cpu.itb.stage2_mmu.stage2_tlb.domain_faults            0                       # Number of TLB faults due to domain restrictions
system.cpu.itb.stage2_mmu.stage2_tlb.flush_entries            0                       # Number of entries that have been flushed from TLB
system.cpu.itb.stage2_mmu.stage2_tlb.flush_tlb            0                       # Number of times complete TLB was flushed
system.cpu.itb.stage2_mmu.stage2_tlb.flush_tlb_asid            0                       # Number of times TLB was flushed by ASID
system.cpu.itb.stage2_mmu.stage2_tlb.flush_tlb_mva            0                       # Number of times TLB was flushed by MVA
system.cpu.itb.stage2_mmu.stage2_tlb.flush_tlb_mva_asid            0                       # Number of times TLB was flushed by MVA & ASID
system.cpu.itb.stage2_mmu.stage2_tlb.hits            0                       # DTB hits
system.cpu.itb.stage2_mmu.stage2_tlb.inst_accesses            0                       # ITB inst accesses
system.cpu.itb.stage2_mmu.stage2_tlb.inst_hits            0                       # ITB inst hits
system.cpu.itb.stage2_mmu.stage2_tlb.inst_misses            0                       # ITB inst misses
system.cpu.itb.stage2_mmu.stage2_tlb.misses            0                       # DTB misses
system.cpu.itb.stage2_mmu.stage2_tlb.perms_faults            0                       # Number of TLB faults due to permissions restrictions
system.cpu.itb.stage2_mmu.stage2_tlb.prefetch_faults            0                       # Number of TLB faults due to prefetch
system.cpu.itb.stage2_mmu.stage2_tlb.read_accesses            0                       # DTB read accesses
system.cpu.itb.stage2_mmu.stage2_tlb.read_hits            0                       # DTB read hits
system.cpu.itb.stage2_mmu.stage2_tlb.read_misses            0                       # DTB read misses
system.cpu.itb.stage2_mmu.stage2_tlb.walker.walkRequestOrigin_Requested::Data            0                       # Table walker requests started/completed, data/inst
system.cpu.itb.stage2_mmu.stage2_tlb.walker.walkRequestOrigin_Requested::Inst            0                       # Table walker requests started/completed, data/inst
system.cpu.itb.stage2_mmu.stage2_tlb.walker.walkRequestOrigin_Requested::total            0                       # Table walker requests started/completed, data/inst
system.cpu.itb.stage2_mmu.stage2_tlb.walker.walkRequestOrigin_Completed::Data            0                       # Table walker requests started/completed, data/inst
system.cpu.itb.stage2_mmu.stage2_tlb.walker.walkRequestOrigin_Completed::Inst            0                       # Table walker requests started/completed, data/inst
system.cpu.itb.stage2_mmu.stage2_tlb.walker.walkRequestOrigin_Completed::total            0                       # Table walker requests started/completed, data/inst
system.cpu.itb.stage2_mmu.stage2_tlb.walker.walkRequestOrigin::total            0                       # Table walker requests started/completed, data/inst
system.cpu.itb.stage2_mmu.stage2_tlb.walker.walks            0                       # Table walker walks requested
system.cpu.itb.stage2_mmu.stage2_tlb.write_accesses            0                       # DTB write accesses
system.cpu.itb.stage2_mmu.stage2_tlb.write_hits            0                       # DTB write hits
system.cpu.itb.stage2_mmu.stage2_tlb.write_misses            0                       # DTB write misses
system.cpu.itb.walker.walkRequestOrigin_Requested::Data            0                       # Table walker requests started/completed, data/inst
system.cpu.itb.walker.walkRequestOrigin_Requested::Inst            0                       # Table walker requests started/completed, data/inst
system.cpu.itb.walker.walkRequestOrigin_Requested::total            0                       # Table walker requests started/completed, data/inst
system.cpu.itb.walker.walkRequestOrigin_Completed::Data            0                       # Table walker requests started/completed, data/inst
system.cpu.itb.walker.walkRequestOrigin_Completed::Inst            0                       # Table walker requests started/completed, data/inst
system.cpu.itb.walker.walkRequestOrigin_Completed::total            0                       # Table walker requests started/completed, data/inst
system.cpu.itb.walker.walkRequestOrigin::total            0                       # Table walker requests started/completed, data/inst
system.cpu.itb.walker.walks                         0                       # Table walker walks requested
system.cpu.itb.write_accesses                       0                       # DTB write accesses
system.cpu.itb.write_hits                           0                       # DTB write hits
system.cpu.itb.write_misses                         0                       # DTB write misses
system.cpu.numCycles                        164763704                       # number of cpu cycles simulated
system.cpu.numFetchSuspends                         0                       # Number of times Execute suspended instruction fetching
system.cpu.numWorkItemsCompleted                    0                       # number of work items this cpu completed
system.cpu.numWorkItemsStarted                      0                       # number of work items this cpu started
system.cpu.op_class_0::No_OpClass                   0      0.00%      0.00% # Class of committed instruction
system.cpu.op_class_0::IntAlu                46531438     46.44%     46.44% # Class of committed instruction
system.cpu.op_class_0::IntMult                  20720      0.02%     46.46% # Class of committed instruction
system.cpu.op_class_0::IntDiv                       0      0.00%     46.46% # Class of committed instruction
system.cpu.op_class_0::FloatAdd                     0      0.00%     46.46% # Class of committed instruction
system.cpu.op_class_0::FloatCmp                     0      0.00%     46.46% # Class of committed instruction
system.cpu.op_class_0::FloatCvt                     0      0.00%     46.46% # Class of committed instruction
system.cpu.op_class_0::FloatMult                    0      0.00%     46.46% # Class of committed instruction
system.cpu.op_class_0::FloatMultAcc                 0      0.00%     46.46% # Class of committed instruction
system.cpu.op_class_0::FloatDiv                     0      0.00%     46.46% # Class of committed instruction
system.cpu.op_class_0::FloatMisc                    0      0.00%     46.46% # Class of committed instruction
system.cpu.op_class_0::FloatSqrt                    0      0.00%     46.46% # Class of committed instruction
system.cpu.op_class_0::SimdAdd                      0      0.00%     46.46% # Class of committed instruction
system.cpu.op_class_0::SimdAddAcc                   0      0.00%     46.46% # Class of committed instruction
system.cpu.op_class_0::SimdAlu                      0      0.00%     46.46% # Class of committed instruction
system.cpu.op_class_0::SimdCmp                      0      0.00%     46.46% # Class of committed instruction
system.cpu.op_class_0::SimdCvt                      0      0.00%     46.46% # Class of committed instruction
system.cpu.op_class_0::SimdMisc                     0      0.00%     46.46% # Class of committed instruction
system.cpu.op_class_0::SimdMult                     0      0.00%     46.46% # Class of committed instruction
system.cpu.op_class_0::SimdMultAcc                  0      0.00%     46.46% # Class of committed instruction
system.cpu.op_class_0::SimdShift                    0      0.00%     46.46% # Class of committed instruction
system.cpu.op_class_0::SimdShiftAcc                 0      0.00%     46.46% # Class of committed instruction
system.cpu.op_class_0::SimdDiv                      0      0.00%     46.46% # Class of committed instruction
system.cpu.op_class_0::SimdSqrt                     0      0.00%     46.46% # Class of committed instruction
system.cpu.op_class_0::SimdFloatAdd                 0      0.00%     46.46% # Class of committed instruction
system.cpu.op_class_0::SimdFloatAlu                 0      0.00%     46.46% # Class of committed instruction
system.cpu.op_class_0::SimdFloatCmp                 0      0.00%     46.46% # Class of committed instruction
system.cpu.op_class_0::SimdFloatCvt                 0      0.00%     46.46% # Class of committed instruction
system.cpu.op_class_0::SimdFloatDiv                 0      0.00%     46.46% # Class of committed instruction
system.cpu.op_class_0::SimdFloatMisc               18      0.00%     46.46% # Class of committed instruction
system.cpu.op_class_0::SimdFloatMult                0      0.00%     46.46% # Class of committed instruction
system.cpu.op_class_0::SimdFloatMultAcc             0      0.00%     46.46% # Class of committed instruction
system.cpu.op_class_0::SimdFloatSqrt                0      0.00%     46.46% # Class of committed instruction
system.cpu.op_class_0::SimdReduceAdd                0      0.00%     46.46% # Class of committed instruction
system.cpu.op_class_0::SimdReduceAlu                0      0.00%     46.46% # Class of committed instruction
system.cpu.op_class_0::SimdReduceCmp                0      0.00%     46.46% # Class of committed instruction
system.cpu.op_class_0::SimdFloatReduceAdd            0      0.00%     46.46% # Class of committed instruction
system.cpu.op_class_0::SimdFloatReduceCmp            0      0.00%     46.46% # Class of committed instruction
system.cpu.op_class_0::SimdAes                      0      0.00%     46.46% # Class of committed instruction
system.cpu.op_class_0::SimdAesMix                   0      0.00%     46.46% # Class of committed instruction
system.cpu.op_class_0::SimdSha1Hash                 0      0.00%     46.46% # Class of committed instruction
system.cpu.op_class_0::SimdSha1Hash2                0      0.00%     46.46% # Class of committed instruction
system.cpu.op_class_0::SimdSha256Hash               0      0.00%     46.46% # Class of committed instruction
system.cpu.op_class_0::SimdSha256Hash2              0      0.00%     46.46% # Class of committed instruction
system.cpu.op_class_0::SimdShaSigma2                0      0.00%     46.46% # Class of committed instruction
system.cpu.op_class_0::SimdShaSigma3                0      0.00%     46.46% # Class of committed instruction
system.cpu.op_class_0::SimdPredAlu                  0      0.00%     46.46% # Class of committed instruction
system.cpu.op_class_0::MemRead               42693580     42.61%     89.07% # Class of committed instruction
system.cpu.op_class_0::MemWrite              10950614     10.93%    100.00% # Class of committed instruction
system.cpu.op_class_0::FloatMemRead                 0      0.00%    100.00% # Class of committed instruction
system.cpu.op_class_0::FloatMemWrite                0      0.00%    100.00% # Class of committed instruction
system.cpu.op_class_0::IprAccess                    0      0.00%    100.00% # Class of committed instruction
system.cpu.op_class_0::InstPrefetch                 0      0.00%    100.00% # Class of committed instruction
system.cpu.op_class_0::total                100196370                       # Class of committed instruction
system.cpu.tickCycles                       132496583                       # Number of cycles that the object actually ticked
system.cpu.workload.numSyscalls                    84                       # Number of system calls
system.membus.snoop_filter.hit_multi_requests            0                       # Number of requests hitting in the snoop filter with multiple (>1) holders of the requested data.
system.membus.snoop_filter.hit_multi_snoops            0                       # Number of snoops hitting in the snoop filter with multiple (>1) holders of the requested data.
system.membus.snoop_filter.hit_single_requests        75871                       # Number of requests hitting in the snoop filter with a single holder of the requested data.
system.membus.snoop_filter.hit_single_snoops            0                       # Number of snoops hitting in the snoop filter with a single holder of the requested data.
system.membus.snoop_filter.tot_requests        184666                       # Total number of requests made to the snoop filter.
system.membus.snoop_filter.tot_snoops               0                       # Total number of snoops made to the snoop filter.
system.tol2bus.snoop_filter.hit_multi_requests          168                       # Number of requests hitting in the snoop filter with multiple (>1) holders of the requested data.
system.tol2bus.snoop_filter.hit_multi_snoops            0                       # Number of snoops hitting in the snoop filter with multiple (>1) holders of the requested data.
system.tol2bus.snoop_filter.hit_single_requests       708553                       # Number of requests hitting in the snoop filter with a single holder of the requested data.
system.tol2bus.snoop_filter.hit_single_snoops          268                       # Number of snoops hitting in the snoop filter with a single holder of the requested data.
system.tol2bus.snoop_filter.tot_requests      1417856                       # Total number of requests made to the snoop filter.
system.tol2bus.snoop_filter.tot_snoops            268                       # Total number of snoops made to the snoop filter.
system.membus.pwrStateResidencyTicks::UNDEFINED  82381852000                       # Cumulative time (in ticks) in various power states
system.membus.trans_dist::ReadResp              29603                       # Transaction distribution
system.membus.trans_dist::WritebackDirty        49604                       # Transaction distribution
system.membus.trans_dist::CleanEvict            26261                       # Transaction distribution
system.membus.trans_dist::ReadExReq             79198                       # Transaction distribution
system.membus.trans_dist::ReadExResp            79198                       # Transaction distribution
system.membus.trans_dist::ReadSharedReq         29603                       # Transaction distribution
system.membus.pkt_count_system.l2.mem_side::system.mem_ctrls.port       293467                       # Packet count per connected master and slave (bytes)
system.membus.pkt_count::total                 293467                       # Packet count per connected master and slave (bytes)
system.membus.pkt_size_system.l2.mem_side::system.mem_ctrls.port     20275840                       # Cumulative packet size per connected master and slave (bytes)
system.membus.pkt_size::total                20275840                       # Cumulative packet size per connected master and slave (bytes)
system.membus.snoops                                0                       # Total snoops (count)
system.membus.snoopTraffic                          0                       # Total snoop traffic (bytes)
system.membus.snoop_fanout::samples            108801                       # Request fanout histogram
system.membus.snoop_fanout::mean                    0                       # Request fanout histogram
system.membus.snoop_fanout::stdev                   0                       # Request fanout histogram
system.membus.snoop_fanout::underflows              0      0.00%      0.00% # Request fanout histogram
system.membus.snoop_fanout::0                  108801    100.00%    100.00% # Request fanout histogram
system.membus.snoop_fanout::1                       0      0.00%    100.00% # Request fanout histogram
system.membus.snoop_fanout::overflows               0      0.00%    100.00% # Request fanout histogram
system.membus.snoop_fanout::min_value               0                       # Request fanout histogram
system.membus.snoop_fanout::max_value               0                       # Request fanout histogram
system.membus.snoop_fanout::total              108801                       # Request fanout histogram
system.membus.respLayer1.occupancy         1015167500                       # Layer occupancy (ticks)
system.membus.respLayer1.utilization              1.2                       # Layer utilization (%)
system.membus.reqLayer0.occupancy           606400000                       # Layer occupancy (ticks)
system.membus.reqLayer0.utilization               0.7                       # Layer utilization (%)
system.tol2bus.pwrStateResidencyTicks::UNDEFINED  82381852000                       # Cumulative time (in ticks) in various power states
system.tol2bus.trans_dist::ReadResp            420051                       # Transaction distribution
system.tol2bus.trans_dist::WritebackDirty       725870                       # Transaction distribution
system.tol2bus.trans_dist::WritebackClean          304                       # Transaction distribution
system.tol2bus.trans_dist::CleanEvict           58512                       # Transaction distribution
system.tol2bus.trans_dist::ReadExReq           289252                       # Transaction distribution
system.tol2bus.trans_dist::ReadExResp          289252                       # Transaction distribution
system.tol2bus.trans_dist::ReadCleanReq           542                       # Transaction distribution
system.tol2bus.trans_dist::ReadSharedReq       419509                       # Transaction distribution
system.tol2bus.pkt_count_system.cpu.icache.mem_side::system.l2.cpu_side         1388                       # Packet count per connected master and slave (bytes)
system.tol2bus.pkt_count_system.cpu.dcache.mem_side::system.l2.cpu_side      2125771                       # Packet count per connected master and slave (bytes)
system.tol2bus.pkt_count::total               2127159                       # Packet count per connected master and slave (bytes)
system.tol2bus.pkt_size_system.cpu.icache.mem_side::system.l2.cpu_side       108288                       # Cumulative packet size per connected master and slave (bytes)
system.tol2bus.pkt_size_system.cpu.dcache.mem_side::system.l2.cpu_side    177283456                       # Cumulative packet size per connected master and slave (bytes)
system.tol2bus.pkt_size::total              177391744                       # Cumulative packet size per connected master and slave (bytes)
system.tol2bus.snoops                           76133                       # Total snoops (count)
system.tol2bus.snoopTraffic                   6349312                       # Total snoop traffic (bytes)
system.tol2bus.snoop_fanout::samples           785436                       # Request fanout histogram
system.tol2bus.snoop_fanout::mean            0.000555                       # Request fanout histogram
system.tol2bus.snoop_fanout::stdev           0.023554                       # Request fanout histogram
system.tol2bus.snoop_fanout::underflows             0      0.00%      0.00% # Request fanout histogram
system.tol2bus.snoop_fanout::0                 785000     99.94%     99.94% # Request fanout histogram
system.tol2bus.snoop_fanout::1                    436      0.06%    100.00% # Request fanout histogram
system.tol2bus.snoop_fanout::2                      0      0.00%    100.00% # Request fanout histogram
system.tol2bus.snoop_fanout::overflows              0      0.00%    100.00% # Request fanout histogram
system.tol2bus.snoop_fanout::min_value              0                       # Request fanout histogram
system.tol2bus.snoop_fanout::max_value              1                       # Request fanout histogram
system.tol2bus.snoop_fanout::total             785436                       # Request fanout histogram
system.tol2bus.reqLayer0.occupancy         2062068000                       # Layer occupancy (ticks)
system.tol2bus.reqLayer0.utilization              2.5                       # Layer utilization (%)
system.tol2bus.respLayer1.occupancy        1771904995                       # Layer occupancy (ticks)
system.tol2bus.respLayer1.utilization             2.2                       # Layer utilization (%)
system.tol2bus.respLayer0.occupancy           1355000                       # Layer occupancy (ticks)
system.tol2bus.respLayer0.utilization             0.0                       # Layer utilization (%)
system.voltage_domain.voltage                       1                       # Voltage in Volts
system.clk_domain.clock                          1000                       # Clock period in ticks
system.l2.pwrStateResidencyTicks::UNDEFINED  82381852000                       # Cumulative time (in ticks) in various power states
system.l2.demand_hits::.cpu.inst                  125                       # number of demand (read+write) hits
system.l2.demand_hits::.cpu.data               600372                       # number of demand (read+write) hits
system.l2.demand_hits::total                   600497                       # number of demand (read+write) hits
system.l2.overall_hits::.cpu.inst                 125                       # number of overall hits
system.l2.overall_hits::.cpu.data              600372                       # number of overall hits
system.l2.overall_hits::total                  600497                       # number of overall hits
system.l2.demand_misses::.cpu.inst                417                       # number of demand (read+write) misses
system.l2.demand_misses::.cpu.data             108389                       # number of demand (read+write) misses
system.l2.demand_misses::total                 108806                       # number of demand (read+write) misses
system.l2.overall_misses::.cpu.inst               417                       # number of overall misses
system.l2.overall_misses::.cpu.data            108389                       # number of overall misses
system.l2.overall_misses::total                108806                       # number of overall misses
system.l2.demand_miss_latency::.cpu.inst     36302000                       # number of demand (read+write) miss cycles
system.l2.demand_miss_latency::.cpu.data   9716315500                       # number of demand (read+write) miss cycles
system.l2.demand_miss_latency::total       9752617500                       # number of demand (read+write) miss cycles
system.l2.overall_miss_latency::.cpu.inst     36302000                       # number of overall miss cycles
system.l2.overall_miss_latency::.cpu.data   9716315500                       # number of overall miss cycles
system.l2.overall_miss_latency::total      9752617500                       # number of overall miss cycles
system.l2.demand_accesses::.cpu.inst              542                       # number of demand (read+write) accesses
system.l2.demand_accesses::.cpu.data           708761                       # number of demand (read+write) accesses
system.l2.demand_accesses::total               709303                       # number of demand (read+write) accesses
system.l2.overall_accesses::.cpu.inst             542                       # number of overall (read+write) accesses
system.l2.overall_accesses::.cpu.data          708761                       # number of overall (read+write) accesses
system.l2.overall_accesses::total              709303                       # number of overall (read+write) accesses
system.l2.demand_miss_rate::.cpu.inst        0.769373                       # miss rate for demand accesses
system.l2.demand_miss_rate::.cpu.data        0.152927                       # miss rate for demand accesses
system.l2.demand_miss_rate::total            0.153398                       # miss rate for demand accesses
system.l2.overall_miss_rate::.cpu.inst       0.769373                       # miss rate for overall accesses
system.l2.overall_miss_rate::.cpu.data       0.152927                       # miss rate for overall accesses
system.l2.overall_miss_rate::total           0.153398                       # miss rate for overall accesses
system.l2.demand_avg_miss_latency::.cpu.inst 87055.155875                       # average overall miss latency
system.l2.demand_avg_miss_latency::.cpu.data 89643.003441                       # average overall miss latency
system.l2.demand_avg_miss_latency::total 89633.085492                       # average overall miss latency
system.l2.overall_avg_miss_latency::.cpu.inst 87055.155875                       # average overall miss latency
system.l2.overall_avg_miss_latency::.cpu.data 89643.003441                       # average overall miss latency
system.l2.overall_avg_miss_latency::total 89633.085492                       # average overall miss latency
system.l2.blocked_cycles::no_mshrs                  0                       # number of cycles access was blocked
system.l2.blocked_cycles::no_targets                0                       # number of cycles access was blocked
system.l2.blocked::no_mshrs                         0                       # number of cycles access was blocked
system.l2.blocked::no_targets                       0                       # number of cycles access was blocked
system.l2.avg_blocked_cycles::no_mshrs            nan                       # average number of cycles each access was blocked
system.l2.avg_blocked_cycles::no_targets          nan                       # average number of cycles each access was blocked
system.l2.writebacks::.writebacks               49604                       # number of writebacks
system.l2.writebacks::total                     49604                       # number of writebacks
system.l2.demand_mshr_hits::.cpu.data               5                       # number of demand (read+write) MSHR hits
system.l2.demand_mshr_hits::total                   5                       # number of demand (read+write) MSHR hits
system.l2.overall_mshr_hits::.cpu.data              5                       # number of overall MSHR hits
system.l2.overall_mshr_hits::total                  5                       # number of overall MSHR hits
system.l2.demand_mshr_misses::.cpu.inst           417                       # number of demand (read+write) MSHR misses
system.l2.demand_mshr_misses::.cpu.data        108384                       # number of demand (read+write) MSHR misses
system.l2.demand_mshr_misses::total            108801                       # number of demand (read+write) MSHR misses
system.l2.overall_mshr_misses::.cpu.inst          417                       # number of overall MSHR misses
system.l2.overall_mshr_misses::.cpu.data       108384                       # number of overall MSHR misses
system.l2.overall_mshr_misses::total           108801                       # number of overall MSHR misses
system.l2.demand_mshr_miss_latency::.cpu.inst     32132000                       # number of demand (read+write) MSHR miss cycles
system.l2.demand_mshr_miss_latency::.cpu.data   8632112000                       # number of demand (read+write) MSHR miss cycles
system.l2.demand_mshr_miss_latency::total   8664244000                       # number of demand (read+write) MSHR miss cycles
system.l2.overall_mshr_miss_latency::.cpu.inst     32132000                       # number of overall MSHR miss cycles
system.l2.overall_mshr_miss_latency::.cpu.data   8632112000                       # number of overall MSHR miss cycles
system.l2.overall_mshr_miss_latency::total   8664244000                       # number of overall MSHR miss cycles
system.l2.demand_mshr_miss_rate::.cpu.inst     0.769373                       # mshr miss rate for demand accesses
system.l2.demand_mshr_miss_rate::.cpu.data     0.152920                       # mshr miss rate for demand accesses
system.l2.demand_mshr_miss_rate::total       0.153391                       # mshr miss rate for demand accesses
system.l2.overall_mshr_miss_rate::.cpu.inst     0.769373                       # mshr miss rate for overall accesses
system.l2.overall_mshr_miss_rate::.cpu.data     0.152920                       # mshr miss rate for overall accesses
system.l2.overall_mshr_miss_rate::total      0.153391                       # mshr miss rate for overall accesses
system.l2.demand_avg_mshr_miss_latency::.cpu.inst 77055.155875                       # average overall mshr miss latency
system.l2.demand_avg_mshr_miss_latency::.cpu.data 79643.785061                       # average overall mshr miss latency
system.l2.demand_avg_mshr_miss_latency::total 79633.863659                       # average overall mshr miss latency
system.l2.overall_avg_mshr_miss_latency::.cpu.inst 77055.155875                       # average overall mshr miss latency
system.l2.overall_avg_mshr_miss_latency::.cpu.data 79643.785061                       # average overall mshr miss latency
system.l2.overall_avg_mshr_miss_latency::total 79633.863659                       # average overall mshr miss latency
system.l2.replacements                          76133                       # number of replacements
system.l2.WritebackDirty_hits::.writebacks       676266                       # number of WritebackDirty hits
system.l2.WritebackDirty_hits::total           676266                       # number of WritebackDirty hits
system.l2.WritebackDirty_accesses::.writebacks       676266                       # number of WritebackDirty accesses(hits+misses)
system.l2.WritebackDirty_accesses::total       676266                       # number of WritebackDirty accesses(hits+misses)
system.l2.WritebackClean_hits::.writebacks          291                       # number of WritebackClean hits
system.l2.WritebackClean_hits::total              291                       # number of WritebackClean hits
system.l2.WritebackClean_accesses::.writebacks          291                       # number of WritebackClean accesses(hits+misses)
system.l2.WritebackClean_accesses::total          291                       # number of WritebackClean accesses(hits+misses)
system.l2.ReadExReq_hits::.cpu.data            210054                       # number of ReadExReq hits
system.l2.ReadExReq_hits::total                210054                       # number of ReadExReq hits
system.l2.ReadExReq_misses::.cpu.data           79198                       # number of ReadExReq misses
system.l2.ReadExReq_misses::total               79198                       # number of ReadExReq misses
system.l2.ReadExReq_miss_latency::.cpu.data   7243621000                       # number of ReadExReq miss cycles
system.l2.ReadExReq_miss_latency::total    7243621000                       # number of ReadExReq miss cycles
system.l2.ReadExReq_accesses::.cpu.data        289252                       # number of ReadExReq accesses(hits+misses)
system.l2.ReadExReq_accesses::total            289252                       # number of ReadExReq accesses(hits+misses)
system.l2.ReadExReq_miss_rate::.cpu.data     0.273803                       # miss rate for ReadExReq accesses
system.l2.ReadExReq_miss_rate::total         0.273803                       # miss rate for ReadExReq accesses
system.l2.ReadExReq_avg_miss_latency::.cpu.data 91462.170762                       # average ReadExReq miss latency
system.l2.ReadExReq_avg_miss_latency::total 91462.170762                       # average ReadExReq miss latency
system.l2.ReadExReq_mshr_misses::.cpu.data        79198                       # number of ReadExReq MSHR misses
system.l2.ReadExReq_mshr_misses::total          79198                       # number of ReadExReq MSHR misses
system.l2.ReadExReq_mshr_miss_latency::.cpu.data   6451641000                       # number of ReadExReq MSHR miss cycles
system.l2.ReadExReq_mshr_miss_latency::total   6451641000                       # number of ReadExReq MSHR miss cycles
system.l2.ReadExReq_mshr_miss_rate::.cpu.data     0.273803                       # mshr miss rate for ReadExReq accesses
system.l2.ReadExReq_mshr_miss_rate::total     0.273803                       # mshr miss rate for ReadExReq accesses
system.l2.ReadExReq_avg_mshr_miss_latency::.cpu.data 81462.170762                       # average ReadExReq mshr miss latency
system.l2.ReadExReq_avg_mshr_miss_latency::total 81462.170762                       # average ReadExReq mshr miss latency
system.l2.ReadCleanReq_hits::.cpu.inst            125                       # number of ReadCleanReq hits
system.l2.ReadCleanReq_hits::total                125                       # number of ReadCleanReq hits
system.l2.ReadCleanReq_misses::.cpu.inst          417                       # number of ReadCleanReq misses
system.l2.ReadCleanReq_misses::total              417                       # number of ReadCleanReq misses
system.l2.ReadCleanReq_miss_latency::.cpu.inst     36302000                       # number of ReadCleanReq miss cycles
system.l2.ReadCleanReq_miss_latency::total     36302000                       # number of ReadCleanReq miss cycles
system.l2.ReadCleanReq_accesses::.cpu.inst          542                       # number of ReadCleanReq accesses(hits+misses)
system.l2.ReadCleanReq_accesses::total            542                       # number of ReadCleanReq accesses(hits+misses)
system.l2.ReadCleanReq_miss_rate::.cpu.inst     0.769373                       # miss rate for ReadCleanReq accesses
system.l2.ReadCleanReq_miss_rate::total      0.769373                       # miss rate for ReadCleanReq accesses
system.l2.ReadCleanReq_avg_miss_latency::.cpu.inst 87055.155875                       # average ReadCleanReq miss latency
system.l2.ReadCleanReq_avg_miss_latency::total 87055.155875                       # average ReadCleanReq miss latency
system.l2.ReadCleanReq_mshr_misses::.cpu.inst          417                       # number of ReadCleanReq MSHR misses
system.l2.ReadCleanReq_mshr_misses::total          417                       # number of ReadCleanReq MSHR misses
system.l2.ReadCleanReq_mshr_miss_latency::.cpu.inst     32132000                       # number of ReadCleanReq MSHR miss cycles
system.l2.ReadCleanReq_mshr_miss_latency::total     32132000                       # number of ReadCleanReq MSHR miss cycles
system.l2.ReadCleanReq_mshr_miss_rate::.cpu.inst     0.769373                       # mshr miss rate for ReadCleanReq accesses
system.l2.ReadCleanReq_mshr_miss_rate::total     0.769373                       # mshr miss rate for ReadCleanReq accesses
system.l2.ReadCleanReq_avg_mshr_miss_latency::.cpu.inst 77055.155875                       # average ReadCleanReq mshr miss latency
system.l2.ReadCleanReq_avg_mshr_miss_latency::total 77055.155875                       # average ReadCleanReq mshr miss latency
system.l2.ReadSharedReq_hits::.cpu.data        390318                       # number of ReadSharedReq hits
system.l2.ReadSharedReq_hits::total            390318                       # number of ReadSharedReq hits
system.l2.ReadSharedReq_misses::.cpu.data        29191                       # number of ReadSharedReq misses
system.l2.ReadSharedReq_misses::total           29191                       # number of ReadSharedReq misses
system.l2.ReadSharedReq_miss_latency::.cpu.data   2472694500                       # number of ReadSharedReq miss cycles
system.l2.ReadSharedReq_miss_latency::total   2472694500                       # number of ReadSharedReq miss cycles
system.l2.ReadSharedReq_accesses::.cpu.data       419509                       # number of ReadSharedReq accesses(hits+misses)
system.l2.ReadSharedReq_accesses::total        419509                       # number of ReadSharedReq accesses(hits+misses)
system.l2.ReadSharedReq_miss_rate::.cpu.data     0.069584                       # miss rate for ReadSharedReq accesses
system.l2.ReadSharedReq_miss_rate::total     0.069584                       # miss rate for ReadSharedReq accesses
system.l2.ReadSharedReq_avg_miss_latency::.cpu.data 84707.426947                       # average ReadSharedReq miss latency
system.l2.ReadSharedReq_avg_miss_latency::total 84707.426947                       # average ReadSharedReq miss latency
system.l2.ReadSharedReq_mshr_hits::.cpu.data            5                       # number of ReadSharedReq MSHR hits
system.l2.ReadSharedReq_mshr_hits::total            5                       # number of ReadSharedReq MSHR hits
system.l2.ReadSharedReq_mshr_misses::.cpu.data        29186                       # number of ReadSharedReq MSHR misses
system.l2.ReadSharedReq_mshr_misses::total        29186                       # number of ReadSharedReq MSHR misses
system.l2.ReadSharedReq_mshr_miss_latency::.cpu.data   2180471000                       # number of ReadSharedReq MSHR miss cycles
system.l2.ReadSharedReq_mshr_miss_latency::total   2180471000                       # number of ReadSharedReq MSHR miss cycles
system.l2.ReadSharedReq_mshr_miss_rate::.cpu.data     0.069572                       # mshr miss rate for ReadSharedReq accesses
system.l2.ReadSharedReq_mshr_miss_rate::total     0.069572                       # mshr miss rate for ReadSharedReq accesses
system.l2.ReadSharedReq_avg_mshr_miss_latency::.cpu.data 74709.483999                       # average ReadSharedReq mshr miss latency
system.l2.ReadSharedReq_avg_mshr_miss_latency::total 74709.483999                       # average ReadSharedReq mshr miss latency
system.l2.tags.pwrStateResidencyTicks::UNDEFINED  82381852000                       # Cumulative time (in ticks) in various power states
system.l2.tags.tagsinuse                 31604.271306                       # Cycle average of tags in use
system.l2.tags.total_refs                     1417683                       # Total number of references to valid blocks.
system.l2.tags.sampled_refs                    108901                       # Sample count of references to valid blocks.
system.l2.tags.avg_refs                     13.018090                       # Average number of references to valid blocks.
system.l2.tags.warmup_cycle                     82000                       # Cycle when the warmup percentage was hit.
system.l2.tags.occ_blocks::.writebacks      55.498375                       # Average occupied blocks per requestor
system.l2.tags.occ_blocks::.cpu.inst        78.422266                       # Average occupied blocks per requestor
system.l2.tags.occ_blocks::.cpu.data     31470.350665                       # Average occupied blocks per requestor
system.l2.tags.occ_percent::.writebacks      0.001694                       # Average percentage of cache occupancy
system.l2.tags.occ_percent::.cpu.inst        0.002393                       # Average percentage of cache occupancy
system.l2.tags.occ_percent::.cpu.data        0.960399                       # Average percentage of cache occupancy
system.l2.tags.occ_percent::total            0.964486                       # Average percentage of cache occupancy
system.l2.tags.occ_task_id_blocks::1024         32768                       # Occupied blocks per task id
system.l2.tags.age_task_id_blocks_1024::2            2                       # Occupied blocks per task id
system.l2.tags.age_task_id_blocks_1024::3         2319                       # Occupied blocks per task id
system.l2.tags.age_task_id_blocks_1024::4        30447                       # Occupied blocks per task id
system.l2.tags.occ_task_id_percent::1024            1                       # Percentage of cache occupancy per task id
system.l2.tags.tag_accesses                  22791909                       # Number of tag accesses
system.l2.tags.data_accesses                 22791909                       # Number of data accesses
system.cpu_voltage_domain.voltage                   1                       # Voltage in Volts
system.mem_ctrls.pwrStateResidencyTicks::UNDEFINED  82381852000                       # Cumulative time (in ticks) in various power states
system.mem_ctrls.bytes_read::.cpu.inst          53376                       # Number of bytes read from this memory
system.mem_ctrls.bytes_read::.cpu.data       13873152                       # Number of bytes read from this memory
system.mem_ctrls.bytes_read::total           13926528                       # Number of bytes read from this memory
system.mem_ctrls.bytes_inst_read::.cpu.inst        53376                       # Number of instructions bytes read from this memory
system.mem_ctrls.bytes_inst_read::total         53376                       # Number of instructions bytes read from this memory
system.mem_ctrls.bytes_written::.writebacks      6349312                       # Number of bytes written to this memory
system.mem_ctrls.bytes_written::total         6349312                       # Number of bytes written to this memory
system.mem_ctrls.num_reads::.cpu.inst             417                       # Number of read requests responded to by this memory
system.mem_ctrls.num_reads::.cpu.data          108384                       # Number of read requests responded to by this memory
system.mem_ctrls.num_reads::total              108801                       # Number of read requests responded to by this memory
system.mem_ctrls.num_writes::.writebacks        49604                       # Number of write requests responded to by this memory
system.mem_ctrls.num_writes::total              49604                       # Number of write requests responded to by this memory
system.mem_ctrls.bw_read::.cpu.inst            647910                       # Total read bandwidth from this memory (bytes/s)
system.mem_ctrls.bw_read::.cpu.data         168400584                       # Total read bandwidth from this memory (bytes/s)
system.mem_ctrls.bw_read::total             169048494                       # Total read bandwidth from this memory (bytes/s)
system.mem_ctrls.bw_inst_read::.cpu.inst       647910                       # Instruction read bandwidth from this memory (bytes/s)
system.mem_ctrls.bw_inst_read::total           647910                       # Instruction read bandwidth from this memory (bytes/s)
system.mem_ctrls.bw_write::.writebacks       77071732                       # Write bandwidth from this memory (bytes/s)
system.mem_ctrls.bw_write::total             77071732                       # Write bandwidth from this memory (bytes/s)
system.mem_ctrls.bw_total::.writebacks       77071732                       # Total bandwidth to/from this memory (bytes/s)
system.mem_ctrls.bw_total::.cpu.inst           647910                       # Total bandwidth to/from this memory (bytes/s)
system.mem_ctrls.bw_total::.cpu.data        168400584                       # Total bandwidth to/from this memory (bytes/s)
system.mem_ctrls.bw_total::total            246120226                       # Total bandwidth to/from this memory (bytes/s)
system.mem_ctrls.avgPriority_.writebacks::samples     99208.00                       # Average QoS priority value for accepted requests
system.mem_ctrls.avgPriority_.cpu.inst::samples       834.00                       # Average QoS priority value for accepted requests
system.mem_ctrls.avgPriority_.cpu.data::samples    216764.00                       # Average QoS priority value for accepted requests
system.mem_ctrls.priorityMinLatency      0.000000018750                       # per QoS priority minimum request to response latency (s)
system.mem_ctrls.priorityMaxLatency      0.002736759750                       # per QoS priority maximum request to response latency (s)
system.mem_ctrls.numReadWriteTurnArounds         6045                       # Number of turnarounds from READ to WRITE
system.mem_ctrls.numWriteReadTurnArounds         6045                       # Number of turnarounds from WRITE to READ
system.mem_ctrls.numStayReadState              385401                       # Number of times bus staying in READ state
system.mem_ctrls.numStayWriteState              93241                       # Number of times bus staying in WRITE state
system.mem_ctrls.readReqs                      108801                       # Number of read requests accepted
system.mem_ctrls.writeReqs                      49604                       # Number of write requests accepted
system.mem_ctrls.readBursts                    217602                       # Number of DRAM read bursts, including those serviced by the write queue
system.mem_ctrls.writeBursts                    99208                       # Number of DRAM write bursts, including those merged in the write queue
system.mem_ctrls.servicedByWrQ                      4                       # Number of DRAM read bursts serviced by the write queue
system.mem_ctrls.mergedWrBursts                     0                       # Number of DRAM write bursts merged with an existing one
system.mem_ctrls.neitherReadNorWriteReqs            0                       # Number of requests that are neither read nor write
system.mem_ctrls.perBankRdBursts::0             13812                       # Per bank write bursts
system.mem_ctrls.perBankRdBursts::1             13792                       # Per bank write bursts
system.mem_ctrls.perBankRdBursts::2             13750                       # Per bank write bursts
system.mem_ctrls.perBankRdBursts::3             13576                       # Per bank write bursts
system.mem_ctrls.perBankRdBursts::4             13540                       # Per bank write bursts
system.mem_ctrls.perBankRdBursts::5             13482                       # Per bank write bursts
system.mem_ctrls.perBankRdBursts::6             13458                       # Per bank write bursts
system.mem_ctrls.perBankRdBursts::7             13600                       # Per bank write bursts
system.mem_ctrls.perBankRdBursts::8             13610                       # Per bank write bursts
system.mem_ctrls.perBankRdBursts::9             13594                       # Per bank write bursts
system.mem_ctrls.perBankRdBursts::10            13660                       # Per bank write bursts
system.mem_ctrls.perBankRdBursts::11            13634                       # Per bank write bursts
system.mem_ctrls.perBankRdBursts::12            13590                       # Per bank write bursts
system.mem_ctrls.perBankRdBursts::13            13468                       # Per bank write bursts
system.mem_ctrls.perBankRdBursts::14            13470                       # Per bank write bursts
system.mem_ctrls.perBankRdBursts::15            13562                       # Per bank write bursts
system.mem_ctrls.perBankWrBursts::0              6272                       # Per bank write bursts
system.mem_ctrls.perBankWrBursts::1              6274                       # Per bank write bursts
system.mem_ctrls.perBankWrBursts::2              6318                       # Per bank write bursts
system.mem_ctrls.perBankWrBursts::3              6298                       # Per bank write bursts
system.mem_ctrls.perBankWrBursts::4              6210                       # Per bank write bursts
system.mem_ctrls.perBankWrBursts::5              6164                       # Per bank write bursts
system.mem_ctrls.perBankWrBursts::6              6174                       # Per bank write bursts
system.mem_ctrls.perBankWrBursts::7              6268                       # Per bank write bursts
system.mem_ctrls.perBankWrBursts::8              6184                       # Per bank write bursts
system.mem_ctrls.perBankWrBursts::9              6142                       # Per bank write bursts
system.mem_ctrls.perBankWrBursts::10             6138                       # Per bank write bursts
system.mem_ctrls.perBankWrBursts::11             6144                       # Per bank write bursts
system.mem_ctrls.perBankWrBursts::12             6117                       # Per bank write bursts
system.mem_ctrls.perBankWrBursts::13             6144                       # Per bank write bursts
system.mem_ctrls.perBankWrBursts::14             6144                       # Per bank write bursts
system.mem_ctrls.perBankWrBursts::15             6188                       # Per bank write bursts
system.mem_ctrls.avgRdQLen                       2.06                       # Average read queue length when enqueuing
system.mem_ctrls.avgWrQLen                      25.02                       # Average write queue length when enqueuing
system.mem_ctrls.totQLat                   3750708500                       # Total ticks spent queuing
system.mem_ctrls.totBusLat                 1087990000                       # Total ticks spent in databus transfers
system.mem_ctrls.totMemAccLat              7830671000                       # Total ticks spent from burst creation until serviced by the DRAM
system.mem_ctrls.avgQLat                     17236.87                       # Average queueing delay per DRAM burst
system.mem_ctrls.avgBusLat                    5000.00                       # Average bus latency per DRAM burst
system.mem_ctrls.avgMemAccLat                35986.87                       # Average memory access latency per DRAM burst
system.mem_ctrls.numRdRetry                         0                       # Number of times read queue was full causing retry
system.mem_ctrls.numWrRetry                         0                       # Number of times write queue was full causing retry
system.mem_ctrls.readRowHits                   184432                       # Number of row buffer hits during reads
system.mem_ctrls.writeRowHits                   86052                       # Number of row buffer hits during writes
system.mem_ctrls.readRowHitRate                 84.76                       # Row buffer hit rate for reads
system.mem_ctrls.writeRowHitRate                86.74                       # Row buffer hit rate for writes
system.mem_ctrls.readPktSize::0                     0                       # Read request sizes (log2)
system.mem_ctrls.readPktSize::1                     0                       # Read request sizes (log2)
system.mem_ctrls.readPktSize::2                     0                       # Read request sizes (log2)
system.mem_ctrls.readPktSize::3                     0                       # Read request sizes (log2)
system.mem_ctrls.readPktSize::4                     0                       # Read request sizes (log2)
system.mem_ctrls.readPktSize::5                     0                       # Read request sizes (log2)
system.mem_ctrls.readPktSize::6                217602                       # Read request sizes (log2)
system.mem_ctrls.writePktSize::0                    0                       # Write request sizes (log2)
system.mem_ctrls.writePktSize::1                    0                       # Write request sizes (log2)
system.mem_ctrls.writePktSize::2                    0                       # Write request sizes (log2)
system.mem_ctrls.writePktSize::3                    0                       # Write request sizes (log2)
system.mem_ctrls.writePktSize::4                    0                       # Write request sizes (log2)
system.mem_ctrls.writePktSize::5                    0                       # Write request sizes (log2)
system.mem_ctrls.writePktSize::6                99208                       # Write request sizes (log2)
system.mem_ctrls.rdQLenPdf::0                   91254                       # What read queue length does an incoming req see
system.mem_ctrls.rdQLenPdf::1                   91489                       # What read queue length does an incoming req see
system.mem_ctrls.rdQLenPdf::2                   17539                       # What read queue length does an incoming req see
system.mem_ctrls.rdQLenPdf::3                   17305                       # What read queue length does an incoming req see
system.mem_ctrls.rdQLenPdf::4                       5                       # What read queue length does an incoming req see
system.mem_ctrls.rdQLenPdf::5                       4                       # What read queue length does an incoming req see
system.mem_ctrls.rdQLenPdf::6                       1                       # What read queue length does an incoming req see
system.mem_ctrls.rdQLenPdf::7                       1                       # What read queue length does an incoming req see
system.mem_ctrls.rdQLenPdf::8                       0                       # What read queue length does an incoming req see
system.mem_ctrls.rdQLenPdf::9                       0                       # What read queue length does an incoming req see
system.mem_ctrls.rdQLenPdf::10                      0                       # What read queue length does an incoming req see
system.mem_ctrls.rdQLenPdf::11                      0                       # What read queue length does an incoming req see
system.mem_ctrls.rdQLenPdf::12                      0                       # What read queue length does an incoming req see
system.mem_ctrls.rdQLenPdf::13                      0                       # What read queue length does an incoming req see
system.mem_ctrls.rdQLenPdf::14                      0                       # What read queue length does an incoming req see
system.mem_ctrls.rdQLenPdf::15                      0                       # What read queue length does an incoming req see
system.mem_ctrls.rdQLenPdf::16                      0                       # What read queue length does an incoming req see
system.mem_ctrls.rdQLenPdf::17                      0                       # What read queue length does an incoming req see
system.mem_ctrls.rdQLenPdf::18                      0                       # What read queue length does an incoming req see
system.mem_ctrls.rdQLenPdf::19                      0                       # What read queue length does an incoming req see
system.mem_ctrls.rdQLenPdf::20                      0                       # What read queue length does an incoming req see
system.mem_ctrls.rdQLenPdf::21                      0                       # What read queue length does an incoming req see
system.mem_ctrls.rdQLenPdf::22                      0                       # What read queue length does an incoming req see
system.mem_ctrls.rdQLenPdf::23                      0                       # What read queue length does an incoming req see
system.mem_ctrls.rdQLenPdf::24                      0                       # What read queue length does an incoming req see
system.mem_ctrls.rdQLenPdf::25                      0                       # What read queue length does an incoming req see
system.mem_ctrls.rdQLenPdf::26                      0                       # What read queue length does an incoming req see
system.mem_ctrls.rdQLenPdf::27                      0                       # What read queue length does an incoming req see
system.mem_ctrls.rdQLenPdf::28                      0                       # What read queue length does an incoming req see
system.mem_ctrls.rdQLenPdf::29                      0                       # What read queue length does an incoming req see
system.mem_ctrls.rdQLenPdf::30                      0                       # What read queue length does an incoming req see
system.mem_ctrls.rdQLenPdf::31                      0                       # What read queue length does an incoming req see
system.mem_ctrls.wrQLenPdf::0                       1                       # What write queue length does an incoming req see
system.mem_ctrls.wrQLenPdf::1                       1                       # What write queue length does an incoming req see
system.mem_ctrls.wrQLenPdf::2                       1                       # What write queue length does an incoming req see
system.mem_ctrls.wrQLenPdf::3                       1                       # What write queue length does an incoming req see
system.mem_ctrls.wrQLenPdf::4                       1                       # What write queue length does an incoming req see
system.mem_ctrls.wrQLenPdf::5                       1                       # What write queue length does an incoming req see
system.mem_ctrls.wrQLenPdf::6                       1                       # What write queue length does an incoming req see
system.mem_ctrls.wrQLenPdf::7                       1                       # What write queue length does an incoming req see
system.mem_ctrls.wrQLenPdf::8                       1                       # What write queue length does an incoming req see
system.mem_ctrls.wrQLenPdf::9                       1                       # What write queue length does an incoming req see
system.mem_ctrls.wrQLenPdf::10                      1                       # What write queue length does an incoming req see
system.mem_ctrls.wrQLenPdf::11                      1                       # What write queue length does an incoming req see
system.mem_ctrls.wrQLenPdf::12                      1                       # What write queue length does an incoming req see
system.mem_ctrls.wrQLenPdf::13                      1                       # What write queue length does an incoming req see
system.mem_ctrls.wrQLenPdf::14                      1                       # What write queue length does an incoming req see
system.mem_ctrls.wrQLenPdf::15                   1177                       # What write queue length does an incoming req see
system.mem_ctrls.wrQLenPdf::16                   1184                       # What write queue length does an incoming req see
system.mem_ctrls.wrQLenPdf::17                   2689                       # What write queue length does an incoming req see
system.mem_ctrls.wrQLenPdf::18                   2894                       # What write queue length does an incoming req see
system.mem_ctrls.wrQLenPdf::19                   5085                       # What write queue length does an incoming req see
system.mem_ctrls.wrQLenPdf::20                   6062                       # What write queue length does an incoming req see
system.mem_ctrls.wrQLenPdf::21                   6074                       # What write queue length does an incoming req see
system.mem_ctrls.wrQLenPdf::22                   6089                       # What write queue length does an incoming req see
system.mem_ctrls.wrQLenPdf::23                   6072                       # What write queue length does an incoming req see
system.mem_ctrls.wrQLenPdf::24                   6141                       # What write queue length does an incoming req see
system.mem_ctrls.wrQLenPdf::25                   7920                       # What write queue length does an incoming req see
system.mem_ctrls.wrQLenPdf::26                   8685                       # What write queue length does an incoming req see
system.mem_ctrls.wrQLenPdf::27                   6923                       # What write queue length does an incoming req see
system.mem_ctrls.wrQLenPdf::28                   6295                       # What write queue length does an incoming req see
system.mem_ctrls.wrQLenPdf::29                   6419                       # What write queue length does an incoming req see
system.mem_ctrls.wrQLenPdf::30                   6193                       # What write queue length does an incoming req see
system.mem_ctrls.wrQLenPdf::31                   6046                       # What write queue length does an incoming req see
system.mem_ctrls.wrQLenPdf::32                   6046                       # What write queue length does an incoming req see
system.mem_ctrls.wrQLenPdf::33                   1189                       # What write queue length does an incoming req see
system.mem_ctrls.wrQLenPdf::34                      7                       # What write queue length does an incoming req see
system.mem_ctrls.wrQLenPdf::35                      3                       # What write queue length does an incoming req see
system.mem_ctrls.wrQLenPdf::36                      0                       # What write queue length does an incoming req see
system.mem_ctrls.wrQLenPdf::37                      0                       # What write queue length does an incoming req see
system.mem_ctrls.wrQLenPdf::38                      0                       # What write queue length does an incoming req see
system.mem_ctrls.wrQLenPdf::39                      0                       # What write queue length does an incoming req see
system.mem_ctrls.wrQLenPdf::40                      0                       # What write queue length does an incoming req see
system.mem_ctrls.wrQLenPdf::41                      0                       # What write queue length does an incoming req see
system.mem_ctrls.wrQLenPdf::42                      0                       # What write queue length does an incoming req see
system.mem_ctrls.wrQLenPdf::43                      0                       # What write queue length does an incoming req see
system.mem_ctrls.wrQLenPdf::44                      0                       # What write queue length does an incoming req see
system.mem_ctrls.wrQLenPdf::45                      0                       # What write queue length does an incoming req see
system.mem_ctrls.wrQLenPdf::46                      0                       # What write queue length does an incoming req see
system.mem_ctrls.wrQLenPdf::47                      0                       # What write queue length does an incoming req see
system.mem_ctrls.wrQLenPdf::48                      0                       # What write queue length does an incoming req see
system.mem_ctrls.wrQLenPdf::49                      0                       # What write queue length does an incoming req see
system.mem_ctrls.wrQLenPdf::50                      0                       # What write queue length does an incoming req see
system.mem_ctrls.wrQLenPdf::51                      0                       # What write queue length does an incoming req see
system.mem_ctrls.wrQLenPdf::52                      0                       # What write queue length does an incoming req see
system.mem_ctrls.wrQLenPdf::53                      0                       # What write queue length does an incoming req see
system.mem_ctrls.wrQLenPdf::54                      0                       # What write queue length does an incoming req see
system.mem_ctrls.wrQLenPdf::55                      0                       # What write queue length does an incoming req see
system.mem_ctrls.wrQLenPdf::56                      0                       # What write queue length does an incoming req see
system.mem_ctrls.wrQLenPdf::57                      0                       # What write queue length does an incoming req see
system.mem_ctrls.wrQLenPdf::58                      0                       # What write queue length does an incoming req see
system.mem_ctrls.wrQLenPdf::59                      0                       # What write queue length does an incoming req see
system.mem_ctrls.wrQLenPdf::60                      0                       # What write queue length does an incoming req see
system.mem_ctrls.wrQLenPdf::61                      0                       # What write queue length does an incoming req see
system.mem_ctrls.wrQLenPdf::62                      0                       # What write queue length does an incoming req see
system.mem_ctrls.wrQLenPdf::63                      0                       # What write queue length does an incoming req see
system.mem_ctrls.bytesPerActivate::samples        46293                       # Bytes accessed per row activation
system.mem_ctrls.bytesPerActivate::mean    437.943706                       # Bytes accessed per row activation
system.mem_ctrls.bytesPerActivate::gmean   280.219832                       # Bytes accessed per row activation
system.mem_ctrls.bytesPerActivate::stdev   392.362532                       # Bytes accessed per row activation
system.mem_ctrls.bytesPerActivate::0-127         1154      2.49%      2.49% # Bytes accessed per row activation
system.mem_ctrls.bytesPerActivate::128-255        24198     52.27%     54.76% # Bytes accessed per row activation
system.mem_ctrls.bytesPerActivate::256-383         2404      5.19%     59.96% # Bytes accessed per row activation
system.mem_ctrls.bytesPerActivate::384-511         1294      2.80%     62.75% # Bytes accessed per row activation
system.mem_ctrls.bytesPerActivate::512-639         1533      3.31%     66.06% # Bytes accessed per row activation
system.mem_ctrls.bytesPerActivate::640-767         1711      3.70%     69.76% # Bytes accessed per row activation
system.mem_ctrls.bytesPerActivate::768-895          871      1.88%     71.64% # Bytes accessed per row activation
system.mem_ctrls.bytesPerActivate::896-1023          946      2.04%     73.69% # Bytes accessed per row activation
system.mem_ctrls.bytesPerActivate::1024-1151        12182     26.31%    100.00% # Bytes accessed per row activation
system.mem_ctrls.bytesPerActivate::total        46293                       # Bytes accessed per row activation
system.mem_ctrls.rdPerTurnAround::samples         6045                       # Reads before turning the bus around for writes
system.mem_ctrls.rdPerTurnAround::mean      35.959967                       # Reads before turning the bus around for writes
system.mem_ctrls.rdPerTurnAround::gmean     25.586620                       # Reads before turning the bus around for writes
system.mem_ctrls.rdPerTurnAround::stdev    118.442782                       # Reads before turning the bus around for writes
system.mem_ctrls.rdPerTurnAround::0-511          6044     99.98%     99.98% # Reads before turning the bus around for writes
system.mem_ctrls.rdPerTurnAround::8704-9215            1      0.02%    100.00% # Reads before turning the bus around for writes
system.mem_ctrls.rdPerTurnAround::total          6045                       # Reads before turning the bus around for writes
system.mem_ctrls.wrPerTurnAround::samples         6045                       # Writes before turning the bus around for reads
system.mem_ctrls.wrPerTurnAround::mean      16.406782                       # Writes before turning the bus around for reads
system.mem_ctrls.wrPerTurnAround::gmean     16.386687                       # Writes before turning the bus around for reads
system.mem_ctrls.wrPerTurnAround::stdev      0.835069                       # Writes before turning the bus around for reads
system.mem_ctrls.wrPerTurnAround::16             4848     80.20%     80.20% # Writes before turning the bus around for reads
system.mem_ctrls.wrPerTurnAround::17               10      0.17%     80.36% # Writes before turning the bus around for reads
system.mem_ctrls.wrPerTurnAround::18             1147     18.97%     99.34% # Writes before turning the bus around for reads
system.mem_ctrls.wrPerTurnAround::19               11      0.18%     99.52% # Writes before turning the bus around for reads
[...]
system.cpu.icache.ReadReq_avg_miss_latency::total 72074.723247                       # average ReadReq miss latency
system.cpu.icache.ReadReq_mshr_misses::.cpu.inst          542                       # number of ReadReq MSHR misses
system.cpu.icache.ReadReq_mshr_misses::total          542                       # number of ReadReq MSHR misses
system.cpu.icache.ReadReq_mshr_miss_latency::.cpu.inst     38522500                       # number of ReadReq MSHR miss cycles
system.cpu.icache.ReadReq_mshr_miss_latency::total     38522500                       # number of ReadReq MSHR miss cycles
system.cpu.icache.ReadReq_mshr_miss_rate::.cpu.inst     0.000067                       # mshr miss rate for ReadReq accesses
system.cpu.icache.ReadReq_mshr_miss_rate::total     0.000067                       # mshr miss rate for ReadReq accesses
system.cpu.icache.ReadReq_avg_mshr_miss_latency::.cpu.inst 71074.723247                       # average ReadReq mshr miss latency
system.cpu.icache.ReadReq_avg_mshr_miss_latency::total 71074.723247                       # average ReadReq mshr miss latency
system.cpu.icache.tags.pwrStateResidencyTicks::UNDEFINED  82381852000                       # Cumulative time (in ticks) in various power states
system.cpu.icache.tags.tagsinuse           204.880407                       # Cycle average of tags in use
system.cpu.icache.tags.total_refs             8051196                       # Total number of references to valid blocks.
system.cpu.icache.tags.sampled_refs               542                       # Sample count of references to valid blocks.
system.cpu.icache.tags.avg_refs          14854.605166                       # Average number of references to valid blocks.
system.cpu.icache.tags.warmup_cycle             92500                       # Cycle when the warmup percentage was hit.
system.cpu.icache.tags.occ_blocks::.cpu.inst   204.880407                       # Average occupied blocks per requestor
system.cpu.icache.tags.occ_percent::.cpu.inst     0.800314                       # Average percentage of cache occupancy
system.cpu.icache.tags.occ_percent::total     0.800314                       # Average percentage of cache occupancy
system.cpu.icache.tags.occ_task_id_blocks::1024          238                       # Occupied blocks per task id
system.cpu.icache.tags.age_task_id_blocks_1024::3           52                       # Occupied blocks per task id
system.cpu.icache.tags.age_task_id_blocks_1024::4          186                       # Occupied blocks per task id
system.cpu.icache.tags.occ_task_id_percent::1024     0.929688                       # Percentage of cache occupancy per task id
system.cpu.icache.tags.tag_accesses          16102934                       # Number of tag accesses
system.cpu.icache.tags.data_accesses         16102934                       # Number of data accesses
system.cpu.dtb.walker.pwrStateResidencyTicks::UNDEFINED  82381852000                       # Cumulative time (in ticks) in various power states
system.cpu.dtb.stage2_mmu.stage2_tlb.walker.pwrStateResidencyTicks::UNDEFINED  82381852000                       # Cumulative time (in ticks) in various power states
system.cpu.dcache.pwrStateResidencyTicks::UNDEFINED  82381852000                       # Cumulative time (in ticks) in various power states
system.cpu.dcache.demand_hits::.cpu.data     51317553                       # number of demand (read+write) hits
system.cpu.dcache.demand_hits::total         51317553                       # number of demand (read+write) hits
system.cpu.dcache.overall_hits::.cpu.data     51318117                       # number of overall hits
system.cpu.dcache.overall_hits::total        51318117                       # number of overall hits
system.cpu.dcache.demand_misses::.cpu.data       740169                       # number of demand (read+write) misses
system.cpu.dcache.demand_misses::total         740169                       # number of demand (read+write) misses
system.cpu.dcache.overall_misses::.cpu.data       748023                       # number of overall misses
system.cpu.dcache.overall_misses::total        748023                       # number of overall misses
system.cpu.dcache.demand_miss_latency::.cpu.data  19924899000                       # number of demand (read+write) miss cycles
system.cpu.dcache.demand_miss_latency::total  19924899000                       # number of demand (read+write) miss cycles
system.cpu.dcache.overall_miss_latency::.cpu.data  19924899000                       # number of overall miss cycles
system.cpu.dcache.overall_miss_latency::total  19924899000                       # number of overall miss cycles
system.cpu.dcache.demand_accesses::.cpu.data     52057722                       # number of demand (read+write) accesses
system.cpu.dcache.demand_accesses::total     52057722                       # number of demand (read+write) accesses
system.cpu.dcache.overall_accesses::.cpu.data     52066140                       # number of overall (read+write) accesses
system.cpu.dcache.overall_accesses::total     52066140                       # number of overall (read+write) accesses
system.cpu.dcache.demand_miss_rate::.cpu.data     0.014218                       # miss rate for demand accesses
system.cpu.dcache.demand_miss_rate::total     0.014218                       # miss rate for demand accesses
system.cpu.dcache.overall_miss_rate::.cpu.data     0.014367                       # miss rate for overall accesses
system.cpu.dcache.overall_miss_rate::total     0.014367                       # miss rate for overall accesses
system.cpu.dcache.demand_avg_miss_latency::.cpu.data 26919.391382                       # average overall miss latency
system.cpu.dcache.demand_avg_miss_latency::total 26919.391382                       # average overall miss latency
system.cpu.dcache.overall_avg_miss_latency::.cpu.data 26636.746464                       # average overall miss latency
system.cpu.dcache.overall_avg_miss_latency::total 26636.746464                       # average overall miss latency
system.cpu.dcache.blocked_cycles::no_mshrs            0                       # number of cycles access was blocked
system.cpu.dcache.blocked_cycles::no_targets            0                       # number of cycles access was blocked
system.cpu.dcache.blocked::no_mshrs                 0                       # number of cycles access was blocked
system.cpu.dcache.blocked::no_targets               0                       # number of cycles access was blocked
system.cpu.dcache.avg_blocked_cycles::no_mshrs          nan                       # average number of cycles each access was blocked
system.cpu.dcache.avg_blocked_cycles::no_targets          nan                       # average number of cycles each access was blocked
system.cpu.dcache.writebacks::.writebacks       676266                       # number of writebacks
system.cpu.dcache.writebacks::total            676266                       # number of writebacks
system.cpu.dcache.demand_mshr_hits::.cpu.data        35363                       # number of demand (read+write) MSHR hits
system.cpu.dcache.demand_mshr_hits::total        35363                       # number of demand (read+write) MSHR hits
system.cpu.dcache.overall_mshr_hits::.cpu.data        35363                       # number of overall MSHR hits
system.cpu.dcache.overall_mshr_hits::total        35363                       # number of overall MSHR hits
system.cpu.dcache.demand_mshr_misses::.cpu.data       704806                       # number of demand (read+write) MSHR misses
system.cpu.dcache.demand_mshr_misses::total       704806                       # number of demand (read+write) MSHR misses
system.cpu.dcache.overall_mshr_misses::.cpu.data       708761                       # number of overall MSHR misses
system.cpu.dcache.overall_mshr_misses::total       708761                       # number of overall MSHR misses
system.cpu.dcache.demand_mshr_miss_latency::.cpu.data  16788739500                       # number of demand (read+write) MSHR miss cycles
system.cpu.dcache.demand_mshr_miss_latency::total  16788739500                       # number of demand (read+write) MSHR miss cycles
system.cpu.dcache.overall_mshr_miss_latency::.cpu.data  17121435500                       # number of overall MSHR miss cycles
system.cpu.dcache.overall_mshr_miss_latency::total  17121435500                       # number of overall MSHR miss cycles
system.cpu.dcache.demand_mshr_miss_rate::.cpu.data     0.013539                       # mshr miss rate for demand accesses
system.cpu.dcache.demand_mshr_miss_rate::total     0.013539                       # mshr miss rate for demand accesses
system.cpu.dcache.overall_mshr_miss_rate::.cpu.data     0.013613                       # mshr miss rate for overall accesses
system.cpu.dcache.overall_mshr_miss_rate::total     0.013613                       # mshr miss rate for overall accesses
system.cpu.dcache.demand_avg_mshr_miss_latency::.cpu.data 23820.369719                       # average overall mshr miss latency
system.cpu.dcache.demand_avg_mshr_miss_latency::total 23820.369719                       # average overall mshr miss latency
system.cpu.dcache.overall_avg_mshr_miss_latency::.cpu.data 24156.853298                       # average overall mshr miss latency
system.cpu.dcache.overall_avg_mshr_miss_latency::total 24156.853298                       # average overall mshr miss latency
system.cpu.dcache.replacements                 708249                       # number of replacements
system.cpu.dcache.ReadReq_hits::.cpu.data     40689445                       # number of ReadReq hits
system.cpu.dcache.ReadReq_hits::total        40689445                       # number of ReadReq hits
system.cpu.dcache.ReadReq_misses::.cpu.data       418198                       # number of ReadReq misses
system.cpu.dcache.ReadReq_misses::total        418198                       # number of ReadReq misses
system.cpu.dcache.ReadReq_miss_latency::.cpu.data   7472894000                       # number of ReadReq miss cycles
system.cpu.dcache.ReadReq_miss_latency::total   7472894000                       # number of ReadReq miss cycles
system.cpu.dcache.ReadReq_accesses::.cpu.data     41107643                       # number of ReadReq accesses(hits+misses)
system.cpu.dcache.ReadReq_accesses::total     41107643                       # number of ReadReq accesses(hits+misses)
system.cpu.dcache.ReadReq_miss_rate::.cpu.data     0.010173                       # miss rate for ReadReq accesses
system.cpu.dcache.ReadReq_miss_rate::total     0.010173                       # miss rate for ReadReq accesses
system.cpu.dcache.ReadReq_avg_miss_latency::.cpu.data 17869.272450                       # average ReadReq miss latency
system.cpu.dcache.ReadReq_avg_miss_latency::total 17869.272450                       # average ReadReq miss latency
system.cpu.dcache.ReadReq_mshr_hits::.cpu.data         2644                       # number of ReadReq MSHR hits
system.cpu.dcache.ReadReq_mshr_hits::total         2644                       # number of ReadReq MSHR hits
system.cpu.dcache.ReadReq_mshr_misses::.cpu.data       415554                       # number of ReadReq MSHR misses
system.cpu.dcache.ReadReq_mshr_misses::total       415554                       # number of ReadReq MSHR misses
system.cpu.dcache.ReadReq_mshr_miss_latency::.cpu.data   6903971000                       # number of ReadReq MSHR miss cycles
system.cpu.dcache.ReadReq_mshr_miss_latency::total   6903971000                       # number of ReadReq MSHR miss cycles
system.cpu.dcache.ReadReq_mshr_miss_rate::.cpu.data     0.010109                       # mshr miss rate for ReadReq accesses
system.cpu.dcache.ReadReq_mshr_miss_rate::total     0.010109                       # mshr miss rate for ReadReq accesses
system.cpu.dcache.ReadReq_avg_mshr_miss_latency::.cpu.data 16613.896148                       # average ReadReq mshr miss latency
system.cpu.dcache.ReadReq_avg_mshr_miss_latency::total 16613.896148                       # average ReadReq mshr miss latency
system.cpu.dcache.WriteReq_hits::.cpu.data     10628108                       # number of WriteReq hits
system.cpu.dcache.WriteReq_hits::total       10628108                       # number of WriteReq hits
system.cpu.dcache.WriteReq_misses::.cpu.data       321971                       # number of WriteReq misses
system.cpu.dcache.WriteReq_misses::total       321971                       # number of WriteReq misses
system.cpu.dcache.WriteReq_miss_latency::.cpu.data  12452005000                       # number of WriteReq miss cycles
system.cpu.dcache.WriteReq_miss_latency::total  12452005000                       # number of WriteReq miss cycles
system.cpu.dcache.WriteReq_accesses::.cpu.data     10950079                       # number of WriteReq accesses(hits+misses)
system.cpu.dcache.WriteReq_accesses::total     10950079                       # number of WriteReq accesses(hits+misses)
system.cpu.dcache.WriteReq_miss_rate::.cpu.data     0.029404                       # miss rate for WriteReq accesses
system.cpu.dcache.WriteReq_miss_rate::total     0.029404                       # miss rate for WriteReq accesses
system.cpu.dcache.WriteReq_avg_miss_latency::.cpu.data 38674.306071                       # average WriteReq miss latency
system.cpu.dcache.WriteReq_avg_miss_latency::total 38674.306071                       # average WriteReq miss latency
system.cpu.dcache.WriteReq_mshr_hits::.cpu.data        32719                       # number of WriteReq MSHR hits
system.cpu.dcache.WriteReq_mshr_hits::total        32719                       # number of WriteReq MSHR hits
system.cpu.dcache.WriteReq_mshr_misses::.cpu.data       289252                       # number of WriteReq MSHR misses
system.cpu.dcache.WriteReq_mshr_misses::total       289252                       # number of WriteReq MSHR misses
system.cpu.dcache.WriteReq_mshr_miss_latency::.cpu.data   9884768500                       # number of WriteReq MSHR miss cycles
system.cpu.dcache.WriteReq_mshr_miss_latency::total   9884768500                       # number of WriteReq MSHR miss cycles
system.cpu.dcache.WriteReq_mshr_miss_rate::.cpu.data     0.026416                       # mshr miss rate for WriteReq accesses
system.cpu.dcache.WriteReq_mshr_miss_rate::total     0.026416                       # mshr miss rate for WriteReq accesses
system.cpu.dcache.WriteReq_avg_mshr_miss_latency::.cpu.data 34173.552819                       # average WriteReq mshr miss latency
system.cpu.dcache.WriteReq_avg_mshr_miss_latency::total 34173.552819                       # average WriteReq mshr miss latency
system.cpu.dcache.SoftPFReq_hits::.cpu.data          564                       # number of SoftPFReq hits
system.cpu.dcache.SoftPFReq_hits::total           564                       # number of SoftPFReq hits
system.cpu.dcache.SoftPFReq_misses::.cpu.data         7854                       # number of SoftPFReq misses
system.cpu.dcache.SoftPFReq_misses::total         7854                       # number of SoftPFReq misses
system.cpu.dcache.SoftPFReq_accesses::.cpu.data         8418                       # number of SoftPFReq accesses(hits+misses)
system.cpu.dcache.SoftPFReq_accesses::total         8418                       # number of SoftPFReq accesses(hits+misses)
system.cpu.dcache.SoftPFReq_miss_rate::.cpu.data     0.933001                       # miss rate for SoftPFReq accesses
system.cpu.dcache.SoftPFReq_miss_rate::total     0.933001                       # miss rate for SoftPFReq accesses
system.cpu.dcache.SoftPFReq_mshr_misses::.cpu.data         3955                       # number of SoftPFReq MSHR misses
system.cpu.dcache.SoftPFReq_mshr_misses::total         3955                       # number of SoftPFReq MSHR misses
system.cpu.dcache.SoftPFReq_mshr_miss_latency::.cpu.data    332696000                       # number of SoftPFReq MSHR miss cycles
system.cpu.dcache.SoftPFReq_mshr_miss_latency::total    332696000                       # number of SoftPFReq MSHR miss cycles
system.cpu.dcache.SoftPFReq_mshr_miss_rate::.cpu.data     0.469827                       # mshr miss rate for SoftPFReq accesses
system.cpu.dcache.SoftPFReq_mshr_miss_rate::total     0.469827                       # mshr miss rate for SoftPFReq accesses
system.cpu.dcache.SoftPFReq_avg_mshr_miss_latency::.cpu.data 84120.353982                       # average SoftPFReq mshr miss latency
system.cpu.dcache.SoftPFReq_avg_mshr_miss_latency::total 84120.353982                       # average SoftPFReq mshr miss latency
system.cpu.dcache.LoadLockedReq_hits::.cpu.data           38                       # number of LoadLockedReq hits
system.cpu.dcache.LoadLockedReq_hits::total           38                       # number of LoadLockedReq hits
system.cpu.dcache.LoadLockedReq_accesses::.cpu.data           38                       # number of LoadLockedReq accesses(hits+misses)
system.cpu.dcache.LoadLockedReq_accesses::total           38                       # number of LoadLockedReq accesses(hits+misses)
system.cpu.dcache.StoreCondReq_hits::.cpu.data           38                       # number of StoreCondReq hits
system.cpu.dcache.StoreCondReq_hits::total           38                       # number of StoreCondReq hits
system.cpu.dcache.StoreCondReq_accesses::.cpu.data           38                       # number of StoreCondReq accesses(hits+misses)
system.cpu.dcache.StoreCondReq_accesses::total           38                       # number of StoreCondReq accesses(hits+misses)
system.cpu.dcache.tags.pwrStateResidencyTicks::UNDEFINED  82381852000                       # Cumulative time (in ticks) in various power states
system.cpu.dcache.tags.tagsinuse           504.365919                       # Cycle average of tags in use
system.cpu.dcache.tags.total_refs            52026954                       # Total number of references to valid blocks.
system.cpu.dcache.tags.sampled_refs            708761                       # Sample count of references to valid blocks.
system.cpu.dcache.tags.avg_refs             73.405498                       # Average number of references to valid blocks.
system.cpu.dcache.tags.warmup_cycle            186500                       # Cycle when the warmup percentage was hit.
system.cpu.dcache.tags.occ_blocks::.cpu.data   504.365919                       # Average occupied blocks per requestor
system.cpu.dcache.tags.occ_percent::.cpu.data     0.985090                       # Average percentage of cache occupancy
system.cpu.dcache.tags.occ_percent::total     0.985090                       # Average percentage of cache occupancy
system.cpu.dcache.tags.occ_task_id_blocks::1024          512                       # Occupied blocks per task id
system.cpu.dcache.tags.age_task_id_blocks_1024::0          238                       # Occupied blocks per task id
system.cpu.dcache.tags.age_task_id_blocks_1024::1          232                       # Occupied blocks per task id
system.cpu.dcache.tags.age_task_id_blocks_1024::2           40                       # Occupied blocks per task id
system.cpu.dcache.tags.age_task_id_blocks_1024::3            2                       # Occupied blocks per task id
system.cpu.dcache.tags.occ_task_id_percent::1024            1                       # Percentage of cache occupancy per task id
system.cpu.dcache.tags.tag_accesses         104841193                       # Number of tag accesses
system.cpu.dcache.tags.data_accesses        104841193                       # Number of data accesses
system.cpu.itb.walker.pwrStateResidencyTicks::UNDEFINED  82381852000                       # Cumulative time (in ticks) in various power states
system.cpu.itb.stage2_mmu.stage2_tlb.walker.pwrStateResidencyTicks::UNDEFINED  82381852000                       # Cumulative time (in ticks) in various power states

---------- End Simulation Statistics   ----------
