
---------- Begin Simulation Statistics ----------
final_tick                                82534996500                       # Number of ticks from beginning of simulation (restored from checkpoints and never reset)
host_inst_rate                                 316029                       # Simulator instruction rate (inst/s)
host_mem_usage                                 691760                       # Number of bytes of host memory used
host_op_rate                                   316650                       # Simulator op (including micro ops) rate (op/s)
host_seconds                                   316.43                       # Real time elapsed on the host
host_tick_rate                              260834643                       # Simulator tick rate (ticks/s)
sim_freq                                 1000000000000                       # Frequency of simulated ticks
sim_insts                                   100000000                       # Number of instructions simulated
sim_ops                                     100196369                       # Number of ops (including micro ops) simulated
sim_seconds                                  0.082535                       # Number of seconds simulated
sim_ticks                                 82534996500                       # Number of ticks simulated
system.cpu.branchPred.BTBCorrect                    0                       # Number of correct BTB predictions (this stat may not work properly.
system.cpu.branchPred.BTBHitPct             99.695779                       # BTB Hit Percentage
system.cpu.branchPred.BTBHits                 2095371                       # Number of BTB hits
system.cpu.branchPred.BTBLookups              2101765                       # Number of BTB lookups
system.cpu.branchPred.RASInCorrect                  6                       # Number of incorrect RAS predictions.
system.cpu.branchPred.condIncorrect             81343                       # Number of conditional branches incorrect
system.cpu.branchPred.condPredicted           3727559                       # Number of conditional branches predicted
system.cpu.branchPred.indirectHits                291                       # Number of indirect target hits.
system.cpu.branchPred.indirectLookups             808                       # Number of indirect predictor lookups.
system.cpu.branchPred.indirectMisses              517                       # Number of indirect misses.
system.cpu.branchPred.lookups                 4477627                       # Number of BP lookups
system.cpu.branchPred.usedRAS                   65339                       # Number of times the RAS was used to get a target.
system.cpu.branchPredindirectMispredicted          171                       # Number of mispredicted indirect branches.
system.cpu.committedInsts                   100000000                       # Number of instructions committed
system.cpu.committedOps                     100196369                       # Number of ops (including micro ops) committed
system.cpu.cpi                               1.650700                       # CPI: cycles per instruction
system.cpu.discardedOps                        190573                       # Number of ops (including micro ops) which were discarded before commit
system.cpu.dtb.accesses                             0                       # DTB accesses
system.cpu.dtb.align_faults                         0                       # Number of TLB faults due to alignment restrictions
system.cpu.dtb.domain_faults                        0                       # Number of TLB faults due to domain restrictions
system.cpu.dtb.flush_entries                        0                       # Number of entries that have been flushed from TLB
system.cpu.dtb.flush_tlb                            0                       # Number of times complete TLB was flushed
system.cpu.dtb.flush_tlb_asid                       0                       # Number of times TLB was flushed by ASID
system.cpu.dtb.flush_tlb_mva                        0                       # Number of times TLB was flushed by MVA
system.cpu.dtb.flush_tlb_mva_asid                   0                       # Number of times TLB was flushed by MVA & ASID
system.cpu.dtb.hits                                 0                       # DTB hits
system.cpu.dtb.inst_accesses                        0                       # ITB inst accesses
system.cpu.dtb.inst_hits                            0                       # ITB inst hits
system.cpu.dtb.inst_misses                          0                       # ITB inst misses
system.cpu.dtb.misses                               0                       # DTB misses
system.cpu.dtb.perms_faults                         0                       # Number of TLB faults due to permissions restrictions
system.cpu.dtb.prefetch_faults                      0                       # Number of TLB faults due to prefetch
system.cpu.dtb.read_accesses                        0                       # DTB read accesses
system.cpu.dtb.read_hits                            0                       # DTB read hits
system.cpu.dtb.read_misses                          0                       # DTB read misses
system.cpu.dtb.stage2_mmu.stage2_tlb.accesses            0                       # DTB accesses
system.cpu.dtb.stage2_mmu.stage2_tlb.align_faults            0                       # Number of TLB faults due to alignment restrictions
system.cpu.dtb.stage2_mmu.stage2_tlb.domain_faults            0                       # Number of TLB faults due to domain restrictions
system.cpu.dtb.stage2_mmu.stage2_tlb.flush_entries            0                       # Number of entries that have been flushed from TLB
system.cpu.dtb.stage2_mmu.stage2_tlb.flush_tlb            0                       # Number of times complete TLB was flushed
system.cpu.dtb.stage2_mmu.stage2_tlb.flush_tlb_asid            0                       # Number of times TLB was flushed by ASID
system.cpu.dtb.stage2_mmu.stage2_tlb.flush_tlb_mva            0                       # Number of times TLB was flushed by MVA
system.cpu.dtb.stage2_mmu.stage2_tlb.flush_tlb_mva_asid            0                       # Number of times TLB was flushed by MVA & ASID
system.cpu.dtb.stage2_mmu.stage2_tlb.hits            0                       # DTB hits
system.cpu.dtb.stage2_mmu.stage2_tlb.inst_accesses            0                       # ITB inst accesses
system.cpu.dtb.stage2_mmu.stage2_tlb.inst_hits            0                       # ITB inst hits
system.cpu.dtb.stage2_mmu.stage2_tlb.inst_misses            0                       # ITB inst misses
system.cpu.dtb.stage2_mmu.stage2_tlb.misses            0                       # DTB misses
system.cpu.dtb.stage2_mmu.stage2_tlb.perms_faults            0                       # Number of TLB faults due to permissions restrictions
system.cpu.dtb.stage2_mmu.stage2_tlb.prefetch_faults            0                       # Number of TLB faults due to prefetch
system.cpu.dtb.stage2_mmu.stage2_tlb.read_accesses            0                       # DTB read accesses
system.cpu.dtb.stage2_mmu.stage2_tlb.read_hits            0                       # DTB read hits
system.cpu.dtb.stage2_mmu.stage2_tlb.read_misses            0                       # DTB read misses
system.cpu.dtb.stage2_mmu.stage2_tlb.walker.walkRequestOrigin_Requested::Data            0                       # Table walker requests started/completed, data/inst
system.cpu.dtb.stage2_mmu.stage2_tlb.walker.walkRequestOrigin_Requested::Inst            0                       # Table walker requests started/completed, data/inst
system.cpu.dtb.stage2_mmu.stage2_tlb.walker.walkRequestOrigin_Requested::total            0                       # Table walker requests started/completed, data/inst
system.cpu.dtb.stage2_mmu.stage2_tlb.walker.walkRequestOrigin_Completed::Data            0                       # Table walker requests started/completed, data/inst
system.cpu.dtb.stage2_mmu.stage2_tlb.walker.walkRequestOrigin_Completed::Inst            0                       # Table walker requests started/completed, data/inst
system.cpu.dtb.stage2_mmu.stage2_tlb.walker.walkRequestOrigin_Completed::total            0                       # Table walker requests started/completed, data/inst
system.cpu.dtb.stage2_mmu.stage2_tlb.walker.walkRequestOrigin::total            0                       # Table walker requests started/completed, data/inst
system.cpu.dtb.stage2_mmu.stage2_tlb.walker.walks            0                       # Table walker walks requested
system.cpu.dtb.stage2_mmu.stage2_tlb.write_accesses            0                       # DTB write accesses
system.cpu.dtb.stage2_mmu.stage2_tlb.write_hits            0                       # DTB write hits
system.cpu.dtb.stage2_mmu.stage2_tlb.write_misses            0                       # DTB write misses
system.cpu.dtb.walker.walkRequestOrigin_Requested::Data            0                       # Table walker requests started/completed, data/inst
system.cpu.dtb.walker.walkRequestOrigin_Requested::Inst            0                       # Table walker requests started/completed, data/inst
system.cpu.dtb.walker.walkRequestOrigin_Requested::total            0                       # Table walker requests started/completed, data/inst
system.cpu.dtb.walker.walkRequestOrigin_Completed::Data            0                       # Table walker requests started/completed, data/inst
system.cpu.dtb.walker.walkRequestOrigin_Completed::Inst            0                       # Table walker requests started/completed, data/inst
system.cpu.dtb.walker.walkRequestOrigin_Completed::total            0                       # Table walker requests started/completed, data/inst
system.cpu.dtb.walker.walkRequestOrigin::total            0                       # Table walker requests started/completed, data/inst
system.cpu.dtb.walker.walks                         0                       # Table walker walks requested
system.cpu.dtb.write_accesses                       0                       # DTB write accesses
system.cpu.dtb.write_hits                           0                       # DTB write hits
system.cpu.dtb.write_misses                         0                       # DTB write misses
system.cpu.fetch2.amo_instructions                  0                       # Number of memory atomic instructions successfully decoded
system.cpu.fetch2.fp_instructions                   0                       # Number of floating point instructions successfully decoded
system.cpu.fetch2.int_instructions           42609936                       # Number of integer instructions successfully decoded
system.cpu.fetch2.load_instructions          43402127                       # Number of memory load instructions successfully decoded
system.cpu.fetch2.store_instructions         11001314                       # Number of memory store instructions successfully decoded
system.cpu.fetch2.vec_instructions                  0                       # Number of SIMD instructions successfully decoded
system.cpu.idleCycles                        32565903                       # Total number of cycles that the object has spent stopped
system.cpu.ipc                               0.605804                       # IPC: instructions per cycle
system.cpu.itb.accesses                             0                       # DTB accesses
system.cpu.itb.align_faults                         0                       # Number of TLB faults due to alignment restrictions
system.cpu.itb.domain_faults                        0                       # Number of TLB faults due to domain restrictions
system.cpu.itb.flush_entries                        0                       # Number of entries that have been flushed from TLB
system.cpu.itb.flush_tlb                            0                       # Number of times complete TLB was flushed
system.cpu.itb.flush_tlb_asid                       0                       # Number of times TLB was flushed by ASID
system.cpu.itb.flush_tlb_mva                        0                       # Number of times TLB was flushed by MVA
system.cpu.itb.flush_tlb_mva_asid                   0                       # Number of times TLB was flushed by MVA & ASID
system.cpu.itb.hits                                 0                       # DTB hits
system.cpu.itb.inst_accesses                        0                       # ITB inst accesses
system.cpu.itb.inst_hits                            0                       # ITB inst hits
system.cpu.itb.inst_misses                          0                       # ITB inst misses
system.cpu.itb.misses                               0                       # DTB misses
system.cpu.itb.perms_faults                         0                       # Number of TLB faults due to permissions restrictions
system.cpu.itb.prefetch_faults                      0                       # Number of TLB faults due to prefetch
system.cpu.itb.read_accesses                        0                       # DTB read accesses
system.cpu.itb.read_hits                            0                       # DTB read hits
system.cpu.itb.read_misses                          0                       # DTB read misses
system.cpu.itb.stage2_mmu.stage2_tlb.accesses            0                       # DTB accesses
system.cpu.itb.stage2_mmu.stage2_tlb.align_faults            0                       # Number of TLB faults due to alignment restrictions
system.cpu.itb.stage2_mmu.stage2_tlb.domain_faults            0                       # Number of TLB faults due to domain restrictions
system.cpu.itb.stage2_mmu.stage2_tlb.flush_entries            0                       # Number of entries that have been flushed from TLB
system.cpu.itb.stage2_mmu.stage2_tlb.flush_tlb            0                       # Number of times complete TLB was flushed
system.cpu.itb.stage2_mmu.stage2_tlb.flush_tlb_asid            0                       # Number of times TLB was flushed by ASID
system.cpu.itb.stage2_mmu.stage2_tlb.flush_tlb_mva            0                       # Number of times TLB was flushed by MVA
system.cpu.itb.stage2_mmu.stage2_tlb.flush_tlb_mva_asid            0                       # Number of times TLB was flushed by MVA & ASID
system.cpu.itb.stage2_mmu.stage2_tlb.hits            0                       # DTB hits
system.cpu.itb.stage2_mmu.stage2_tlb.inst_accesses            0                       # ITB inst accesses
system.cpu.itb.stage2_mmu.stage2_tlb.inst_hits            0                       # ITB inst hits
system.cpu.itb.stage2_mmu.stage2_tlb.inst_misses            0                       # ITB inst misses
system.cpu.itb.stage2_mmu.stage2_tlb.misses            0                       # DTB misses
system.cpu.itb.stage2_mmu.stage2_tlb.perms_faults            0                       # Number of TLB faults due to permissions restrictions
system.cpu.itb.stage2_mmu.stage2_tlb.prefetch_faults            0                       # Number of TLB faults due to prefetch
system.cpu.itb.stage2_mmu.stage2_tlb.read_accesses            0                       # DTB read accesses
system.cpu.itb.stage2_mmu.stage2_tlb.read_hits            0                       # DTB read hits
system.cpu.itb.stage2_mmu.stage2_tlb.read_misses            0                       # DTB read misses
system.cpu.itb.stage2_mmu.stage2_tlb.walker.walkRequestOrigin_Requested::Data            0                       # Table walker requests started/completed, data/inst
system.cpu.itb.stage2_mmu.stage2_tlb.walker.walkRequestOrigin_Requested::Inst            0                       # Table walker requests started/completed, data/inst
system.cpu.itb.stage2_mmu.stage2_tlb.walker.walkRequestOrigin_Requested::total            0                       # Table walker requests started/completed, data/inst
system.cpu.itb.stage2_mmu.stage2_tlb.walker.walkRequestOrigin_Completed::Data            0                       # Table walker requests started/completed, data/inst
system.cpu.itb.stage2_mmu.stage2_tlb.walker.walkRequestOrigin_Completed::Inst            0                       # Table walker requests started/completed, data/inst
system.cpu.itb.stage2_mmu.stage2_tlb.walker.walkRequestOrigin_Completed::total            0                       # Table walker requests started/completed, data/inst
system.cpu.itb.stage2_mmu.stage2_tlb.walker.walkRequestOrigin::total            0                       # Table walker requests started/completed, data/inst
system.cpu.itb.stage2_mmu.stage2_tlb.walker.walks            0                       # Table walker walks requested
system.cpu.itb.stage2_mmu.stage2_tlb.write_accesses            0                       # DTB write accesses
system.cpu.itb.stage2_mmu.stage2_tlb.write_hits            0                       # DTB write hits
system.cpu.itb.stage2_mmu.stage2_tlb.write_misses            0                       # DTB write misses
system.cpu.itb.walker.walkRequestOrigin_Requested::Data            0                       # Table walker requests started/completed, data/inst
system.cpu.itb.walker.walkRequestOrigin_Requested::Inst            0                       # Table walker requests started/completed, data/inst
system.cpu.itb.walker.walkRequestOrigin_Requested::total            0                       # Table walker requests started/completed, data/inst
system.cpu.itb.walker.walkRequestOrigin_Completed::Data            0                       # Table walker requests started/completed, data/inst
system.cpu.itb.walker.walkRequestOrigin_Completed::Inst            0                       # Table walker requests started/completed, data/inst
system.cpu.itb.walker.walkRequestOrigin_Completed::total            0                       # Table walker requests started/completed, data/inst
system.cpu.itb.walker.walkRequestOrigin::total            0                       # Table walker requests started/completed, data/inst
system.cpu.itb.walker.walks                         0                       # Table walker walks requested
system.cpu.itb.write_accesses                       0                       # DTB write accesses
system.cpu.itb.write_hits                           0                       # DTB write hits
system.cpu.itb.write_misses                         0                       # DTB write misses
system.cpu.numCycles                        165069993                       # number of cpu cycles simulated
system.cpu.numFetchSuspends                         0                       # Number of times Execute suspended instruction fetching
system.cpu.numWorkItemsCompleted                    0                       # number of work items this cpu completed
system.cpu.numWorkItemsStarted                      0                       # number of work items this cpu started
system.cpu.op_class_0::No_OpClass                   0      0.00%      0.00% # Class of committed instruction
system.cpu.op_class_0::IntAlu                46531437     46.44%     46.44% # Class of committed instruction
system.cpu.op_class_0::IntMult                  20720      0.02%     46.46% # Class of committed instruction
system.cpu.op_class_0::IntDiv                       0      0.00%     46.46% # Class of committed instruction
system.cpu.op_class_0::FloatAdd                     0      0.00%     46.46% # Class of committed instruction
system.cpu.op_class_0::FloatCmp                     0      0.00%     46.46% # Class of committed instruction
system.cpu.op_class_0::FloatCvt                     0      0.00%     46.46% # Class of committed instruction
system.cpu.op_class_0::FloatMult                    0      0.00%     46.46% # Class of committed instruction
system.cpu.op_class_0::FloatMultAcc                 0      0.00%     46.46% # Class of committed instruction
system.cpu.op_class_0::FloatDiv                     0      0.00%     46.46% # Class of committed instruction
system.cpu.op_class_0::FloatMisc                    0      0.00%     46.46% # Class of committed instruction
system.cpu.op_class_0::FloatSqrt                    0      0.00%     46.46% # Class of committed instruction
system.cpu.op_class_0::SimdAdd                      0      0.00%     46.46% # Class of committed instruction
system.cpu.op_class_0::SimdAddAcc                   0      0.00%     46.46% # Class of committed instruction
system.cpu.op_class_0::SimdAlu                      0      0.00%     46.46% # Class of committed instruction
system.cpu.op_class_0::SimdCmp                      0      0.00%     46.46% # Class of committed instruction
system.cpu.op_class_0::SimdCvt                      0      0.00%     46.46% # Class of committed instruction
system.cpu.op_class_0::SimdMisc                     0      0.00%     46.46% # Class of committed instruction
system.cpu.op_class_0::SimdMult                     0      0.00%     46.46% # Class of committed instruction
system.cpu.op_class_0::SimdMultAcc                  0      0.00%     46.46% # Class of committed instruction
system.cpu.op_class_0::SimdShift                    0      0.00%     46.46% # Class of committed instruction
system.cpu.op_class_0::SimdShiftAcc                 0      0.00%     46.46% # Class of committed instruction
system.cpu.op_class_0::SimdDiv                      0      0.00%     46.46% # Class of committed instruction
system.cpu.op_class_0::SimdSqrt                     0      0.00%     46.46% # Class of committed instruction
system.cpu.op_class_0::SimdFloatAdd                 0      0.00%     46.46% # Class of committed instruction
system.cpu.op_class_0::SimdFloatAlu                 0      0.00%     46.46% # Class of committed instruction
system.cpu.op_class_0::SimdFloatCmp                 0      0.00%     46.46% # Class of committed instruction
system.cpu.op_class_0::SimdFloatCvt                 0      0.00%     46.46% # Class of committed instruction
system.cpu.op_class_0::SimdFloatDiv                 0      0.00%     46.46% # Class of committed instruction
system.cpu.op_class_0::SimdFloatMisc               18      0.00%     46.46% # Class of committed instruction
system.cpu.op_class_0::SimdFloatMult                0      0.00%     46.46% # Class of committed instruction
system.cpu.op_class_0::SimdFloatMultAcc             0      0.00%     46.46% # Class of committed instruction
system.cpu.op_class_0::SimdFloatSqrt                0      0.00%     46.46% # Class of committed instruction
system.cpu.op_class_0::SimdReduceAdd                0      0.00%     46.46% # Class of committed instruction
system.cpu.op_class_0::SimdReduceAlu                0      0.00%     46.46% # Class of committed instruction
system.cpu.op_class_0::SimdReduceCmp                0      0.00%     46.46% # Class of committed instruction
system.cpu.op_class_0::SimdFloatReduceAdd            0      0.00%     46.46% # Class of committed instruction
system.cpu.op_class_0::SimdFloatReduceCmp            0      0.00%     46.46% # Class of committed instruction
system.cpu.op_class_0::SimdAes                      0      0.00%     46.46% # Class of committed instruction
system.cpu.op_class_0::SimdAesMix                   0      0.00%     46.46% # Class of committed instruction
system.cpu.op_class_0::SimdSha1Hash                 0      0.00%     46.46% # Class of committed instruction
system.cpu.op_class_0::SimdSha1Hash2                0      0.00%     46.46% # Class of committed instruction
system.cpu.op_class_0::SimdSha256Hash               0      0.00%     46.46% # Class of committed instruction
system.cpu.op_class_0::SimdSha256Hash2              0      0.00%     46.46% # Class of committed instruction
system.cpu.op_class_0::SimdShaSigma2                0      0.00%     46.46% # Class of committed instruction
system.cpu.op_class_0::SimdShaSigma3                0      0.00%     46.46% # Class of committed instruction
system.cpu.op_class_0::SimdPredAlu                  0      0.00%     46.46% # Class of committed instruction
system.cpu.op_class_0::MemRead               42693580     42.61%     89.07% # Class of committed instruction
system.cpu.op_class_0::MemWrite              10950614     10.93%    100.00% # Class of committed instruction
system.cpu.op_class_0::FloatMemRead                 0      0.00%    100.00% # Class of committed instruction
system.cpu.op_class_0::FloatMemWrite                0      0.00%    100.00% # Class of committed instruction
system.cpu.op_class_0::IprAccess                    0      0.00%    100.00% # Class of committed instruction
system.cpu.op_class_0::InstPrefetch                 0      0.00%    100.00% # Class of committed instruction
system.cpu.op_class_0::total                100196369                       # Class of committed instruction
system.cpu.tickCycles                       132504090                       # Number of cycles that the object actually ticked
system.cpu.workload.numSyscalls                    84                       # Number of system calls
system.membus.snoop_filter.hit_multi_requests            0                       # Number of requests hitting in the snoop filter with multiple (>1) holders of the requested data.
system.membus.snoop_filter.hit_multi_snoops            0                       # Number of snoops hitting in the snoop filter with multiple (>1) holders of the requested data.
system.membus.snoop_filter.hit_single_requests       167884                       # Number of requests hitting in the snoop filter with a single holder of the requested data.
system.membus.snoop_filter.hit_single_snoops            0                       # Number of snoops hitting in the snoop filter with a single holder of the requested data.
system.membus.snoop_filter.tot_requests        368870                       # Total number of requests made to the snoop filter.
system.membus.snoop_filter.tot_snoops               0                       # Total number of snoops made to the snoop filter.
system.tol2bus.snoop_filter.hit_multi_requests           70                       # Number of requests hitting in the snoop filter with multiple (>1) holders of the requested data.
system.tol2bus.snoop_filter.hit_multi_snoops            0                       # Number of snoops hitting in the snoop filter with multiple (>1) holders of the requested data.
system.tol2bus.snoop_filter.hit_single_requests       551010                       # Number of requests hitting in the snoop filter with a single holder of the requested data.
system.tol2bus.snoop_filter.hit_single_snoops          469                       # Number of snoops hitting in the snoop filter with a single holder of the requested data.
system.tol2bus.snoop_filter.tot_requests      1104510                       # Total number of requests made to the snoop filter.
system.tol2bus.snoop_filter.tot_snoops            469                       # Total number of snoops made to the snoop filter.
system.membus.pwrStateResidencyTicks::UNDEFINED  82534996500                       # Cumulative time (in ticks) in various power states
system.membus.trans_dist::ReadResp              64878                       # Transaction distribution
system.membus.trans_dist::WritebackDirty       111089                       # Transaction distribution
system.membus.trans_dist::CleanEvict            56788                       # Transaction distribution
system.membus.trans_dist::ReadExReq            136115                       # Transaction distribution
system.membus.trans_dist::ReadExResp           136114                       # Transaction distribution
system.membus.trans_dist::ReadSharedReq         64878                       # Transaction distribution
system.membus.pkt_count_system.l2.mem_side::system.mem_ctrls.port       569862                       # Packet count per connected master and slave (bytes)
system.membus.pkt_count::total                 569862                       # Packet count per connected master and slave (bytes)
system.membus.pkt_size_system.l2.mem_side::system.mem_ctrls.port     19973184                       # Cumulative packet size per connected master and slave (bytes)
system.membus.pkt_size::total                19973184                       # Cumulative packet size per connected master and slave (bytes)
system.membus.snoops                                0                       # Total snoops (count)
system.membus.snoopTraffic                          0                       # Total snoop traffic (bytes)
system.membus.snoop_fanout::samples            200993                       # Request fanout histogram
system.membus.snoop_fanout::mean                    0                       # Request fanout histogram
system.membus.snoop_fanout::stdev                   0                       # Request fanout histogram
system.membus.snoop_fanout::underflows              0      0.00%      0.00% # Request fanout histogram
system.membus.snoop_fanout::0                  200993    100.00%    100.00% # Request fanout histogram
system.membus.snoop_fanout::1                       0      0.00%    100.00% # Request fanout histogram
system.membus.snoop_fanout::overflows               0      0.00%    100.00% # Request fanout histogram
system.membus.snoop_fanout::min_value               0                       # Request fanout histogram
system.membus.snoop_fanout::max_value               0                       # Request fanout histogram
system.membus.snoop_fanout::total              200993                       # Request fanout histogram
system.membus.respLayer1.occupancy         1082636000                       # Layer occupancy (ticks)
system.membus.respLayer1.utilization              1.3                       # Layer utilization (%)
system.membus.reqLayer0.occupancy           854481500                       # Layer occupancy (ticks)
system.membus.reqLayer0.utilization               1.0                       # Layer utilization (%)
system.tol2bus.pwrStateResidencyTicks::UNDEFINED  82534996500                       # Cumulative time (in ticks) in various power states
system.tol2bus.trans_dist::ReadResp            309800                       # Transaction distribution
system.tol2bus.trans_dist::WritebackDirty       588227                       # Transaction distribution
system.tol2bus.trans_dist::WritebackClean          302                       # Transaction distribution
system.tol2bus.trans_dist::CleanEvict          130825                       # Transaction distribution
system.tol2bus.trans_dist::ReadExReq           243702                       # Transaction distribution
system.tol2bus.trans_dist::ReadExResp          243701                       # Transaction distribution
system.tol2bus.trans_dist::ReadCleanReq           747                       # Transaction distribution
system.tol2bus.trans_dist::ReadSharedReq       309053                       # Transaction distribution
system.tol2bus.pkt_count_system.cpu.icache.mem_side::system.l2.cpu_side         1796                       # Packet count per connected master and slave (bytes)
system.tol2bus.pkt_count_system.cpu.dcache.mem_side::system.l2.cpu_side      1656215                       # Packet count per connected master and slave (bytes)
system.tol2bus.pkt_count::total               1658011                       # Packet count per connected master and slave (bytes)
system.tol2bus.pkt_size_system.cpu.icache.mem_side::system.l2.cpu_side        67136                       # Cumulative packet size per connected master and slave (bytes)
system.tol2bus.pkt_size_system.cpu.dcache.mem_side::system.l2.cpu_side     65913088                       # Cumulative packet size per connected master and slave (bytes)
system.tol2bus.pkt_size::total               65980224                       # Cumulative packet size per connected master and slave (bytes)
system.tol2bus.snoops                          168346                       # Total snoops (count)
system.tol2bus.snoopTraffic                   7109696                       # Total snoop traffic (bytes)
system.tol2bus.snoop_fanout::samples           721848                       # Request fanout histogram
system.tol2bus.snoop_fanout::mean            0.000749                       # Request fanout histogram
system.tol2bus.snoop_fanout::stdev           0.027366                       # Request fanout histogram
system.tol2bus.snoop_fanout::underflows             0      0.00%      0.00% # Request fanout histogram
system.tol2bus.snoop_fanout::0                 721307     99.93%     99.93% # Request fanout histogram
system.tol2bus.snoop_fanout::1                    541      0.07%    100.00% # Request fanout histogram
system.tol2bus.snoop_fanout::2                      0      0.00%    100.00% # Request fanout histogram
system.tol2bus.snoop_fanout::overflows              0      0.00%    100.00% # Request fanout histogram
system.tol2bus.snoop_fanout::min_value              0                       # Request fanout histogram
system.tol2bus.snoop_fanout::max_value              1                       # Request fanout histogram
system.tol2bus.snoop_fanout::total             721848                       # Request fanout histogram
system.tol2bus.reqLayer0.occupancy         1029695000                       # Layer occupancy (ticks)
system.tol2bus.reqLayer0.utilization              1.2                       # Layer utilization (%)
system.tol2bus.respLayer1.occupancy         829132996                       # Layer occupancy (ticks)
system.tol2bus.respLayer1.utilization             1.0                       # Layer utilization (%)
system.tol2bus.respLayer0.occupancy           1120500                       # Layer occupancy (ticks)
system.tol2bus.respLayer0.utilization             0.0                       # Layer utilization (%)
system.voltage_domain.voltage                       1                       # Voltage in Volts
system.clk_domain.clock                          1000                       # Clock period in ticks
system.l2.pwrStateResidencyTicks::UNDEFINED  82534996500                       # Cumulative time (in ticks) in various power states
system.l2.demand_hits::.cpu.inst                   78                       # number of demand (read+write) hits
system.l2.demand_hits::.cpu.data               352427                       # number of demand (read+write) hits
system.l2.demand_hits::total                   352505                       # number of demand (read+write) hits
system.l2.overall_hits::.cpu.inst                  78                       # number of overall hits
system.l2.overall_hits::.cpu.data              352427                       # number of overall hits
system.l2.overall_hits::total                  352505                       # number of overall hits
system.l2.demand_misses::.cpu.inst                669                       # number of demand (read+write) misses
system.l2.demand_misses::.cpu.data             200328                       # number of demand (read+write) misses
system.l2.demand_misses::total                 200997                       # number of demand (read+write) misses
system.l2.overall_misses::.cpu.inst               669                       # number of overall misses
system.l2.overall_misses::.cpu.data            200328                       # number of overall misses
system.l2.overall_misses::total                200997                       # number of overall misses
system.l2.demand_miss_latency::.cpu.inst     52613500                       # number of demand (read+write) miss cycles
system.l2.demand_miss_latency::.cpu.data  16940121500                       # number of demand (read+write) miss cycles
system.l2.demand_miss_latency::total      16992735000                       # number of demand (read+write) miss cycles
system.l2.overall_miss_latency::.cpu.inst     52613500                       # number of overall miss cycles
system.l2.overall_miss_latency::.cpu.data  16940121500                       # number of overall miss cycles
system.l2.overall_miss_latency::total     16992735000                       # number of overall miss cycles
system.l2.demand_accesses::.cpu.inst              747                       # number of demand (read+write) accesses
system.l2.demand_accesses::.cpu.data           552755                       # number of demand (read+write) accesses
system.l2.demand_accesses::total               553502                       # number of demand (read+write) accesses
system.l2.overall_accesses::.cpu.inst             747                       # number of overall (read+write) accesses
system.l2.overall_accesses::.cpu.data          552755                       # number of overall (read+write) accesses
system.l2.overall_accesses::total              553502                       # number of overall (read+write) accesses
system.l2.demand_miss_rate::.cpu.inst        0.895582                       # miss rate for demand accesses
system.l2.demand_miss_rate::.cpu.data        0.362417                       # miss rate for demand accesses
system.l2.demand_miss_rate::total            0.363137                       # miss rate for demand accesses
system.l2.overall_miss_rate::.cpu.inst       0.895582                       # miss rate for overall accesses
system.l2.overall_miss_rate::.cpu.data       0.362417                       # miss rate for overall accesses
system.l2.overall_miss_rate::total           0.363137                       # miss rate for overall accesses
system.l2.demand_avg_miss_latency::.cpu.inst 78644.992526                       # average overall miss latency
system.l2.demand_avg_miss_latency::.cpu.data 84561.925941                       # average overall miss latency
system.l2.demand_avg_miss_latency::total 84542.231974                       # average overall miss latency
system.l2.overall_avg_miss_latency::.cpu.inst 78644.992526                       # average overall miss latency
system.l2.overall_avg_miss_latency::.cpu.data 84561.925941                       # average overall miss latency
system.l2.overall_avg_miss_latency::total 84542.231974                       # average overall miss latency
system.l2.blocked_cycles::no_mshrs                  0                       # number of cycles access was blocked
system.l2.blocked_cycles::no_targets                0                       # number of cycles access was blocked
system.l2.blocked::no_mshrs                         0                       # number of cycles access was blocked
system.l2.blocked::no_targets                       0                       # number of cycles access was blocked
system.l2.avg_blocked_cycles::no_mshrs            nan                       # average number of cycles each access was blocked
system.l2.avg_blocked_cycles::no_targets          nan                       # average number of cycles each access was blocked
system.l2.writebacks::.writebacks              111089                       # number of writebacks
system.l2.writebacks::total                    111089                       # number of writebacks
system.l2.demand_mshr_hits::.cpu.data               4                       # number of demand (read+write) MSHR hits
system.l2.demand_mshr_hits::total                   4                       # number of demand (read+write) MSHR hits
system.l2.overall_mshr_hits::.cpu.data              4                       # number of overall MSHR hits
system.l2.overall_mshr_hits::total                  4                       # number of overall MSHR hits
system.l2.demand_mshr_misses::.cpu.inst           669                       # number of demand (read+write) MSHR misses
system.l2.demand_mshr_misses::.cpu.data        200324                       # number of demand (read+write) MSHR misses
system.l2.demand_mshr_misses::total            200993                       # number of demand (read+write) MSHR misses
system.l2.overall_mshr_misses::.cpu.inst          669                       # number of overall MSHR misses
system.l2.overall_mshr_misses::.cpu.data       200324                       # number of overall MSHR misses
system.l2.overall_mshr_misses::total           200993                       # number of overall MSHR misses
system.l2.demand_mshr_miss_latency::.cpu.inst     45923500                       # number of demand (read+write) MSHR miss cycles
system.l2.demand_mshr_miss_latency::.cpu.data  14936647500                       # number of demand (read+write) MSHR miss cycles
system.l2.demand_mshr_miss_latency::total  14982571000                       # number of demand (read+write) MSHR miss cycles
system.l2.overall_mshr_miss_latency::.cpu.inst     45923500                       # number of overall MSHR miss cycles
system.l2.overall_mshr_miss_latency::.cpu.data  14936647500                       # number of overall MSHR miss cycles
system.l2.overall_mshr_miss_latency::total  14982571000                       # number of overall MSHR miss cycles
system.l2.demand_mshr_miss_rate::.cpu.inst     0.895582                       # mshr miss rate for demand accesses
system.l2.demand_mshr_miss_rate::.cpu.data     0.362410                       # mshr miss rate for demand accesses
system.l2.demand_mshr_miss_rate::total       0.363130                       # mshr miss rate for demand accesses
system.l2.overall_mshr_miss_rate::.cpu.inst     0.895582                       # mshr miss rate for overall accesses
system.l2.overall_mshr_miss_rate::.cpu.data     0.362410                       # mshr miss rate for overall accesses
system.l2.overall_mshr_miss_rate::total      0.363130                       # mshr miss rate for overall accesses
system.l2.demand_avg_mshr_miss_latency::.cpu.inst 68644.992526                       # average overall mshr miss latency
system.l2.demand_avg_mshr_miss_latency::.cpu.data 74562.446337                       # average overall mshr miss latency
system.l2.demand_avg_mshr_miss_latency::total 74542.750245                       # average overall mshr miss latency
system.l2.overall_avg_mshr_miss_latency::.cpu.inst 68644.992526                       # average overall mshr miss latency
system.l2.overall_avg_mshr_miss_latency::.cpu.data 74562.446337                       # average overall mshr miss latency
system.l2.overall_avg_mshr_miss_latency::total 74542.750245                       # average overall mshr miss latency
system.l2.replacements                         168346                       # number of replacements
system.l2.WritebackDirty_hits::.writebacks       477138                       # number of WritebackDirty hits
system.l2.WritebackDirty_hits::total           477138                       # number of WritebackDirty hits
system.l2.WritebackDirty_accesses::.writebacks       477138                       # number of WritebackDirty accesses(hits+misses)
system.l2.WritebackDirty_accesses::total       477138                       # number of WritebackDirty accesses(hits+misses)
system.l2.WritebackClean_hits::.writebacks          293                       # number of WritebackClean hits
system.l2.WritebackClean_hits::total              293                       # number of WritebackClean hits
system.l2.WritebackClean_accesses::.writebacks          293                       # number of WritebackClean accesses(hits+misses)
system.l2.WritebackClean_accesses::total          293                       # number of WritebackClean accesses(hits+misses)
system.l2.ReadExReq_hits::.cpu.data            107587                       # number of ReadExReq hits
system.l2.ReadExReq_hits::total                107587                       # number of ReadExReq hits
system.l2.ReadExReq_misses::.cpu.data          136115                       # number of ReadExReq misses
system.l2.ReadExReq_misses::total              136115                       # number of ReadExReq misses
system.l2.ReadExReq_miss_latency::.cpu.data  11817025500                       # number of ReadExReq miss cycles
system.l2.ReadExReq_miss_latency::total   11817025500                       # number of ReadExReq miss cycles
system.l2.ReadExReq_accesses::.cpu.data        243702                       # number of ReadExReq accesses(hits+misses)
system.l2.ReadExReq_accesses::total            243702                       # number of ReadExReq accesses(hits+misses)
system.l2.ReadExReq_miss_rate::.cpu.data     0.558531                       # miss rate for ReadExReq accesses
system.l2.ReadExReq_miss_rate::total         0.558531                       # miss rate for ReadExReq accesses
system.l2.ReadExReq_avg_miss_latency::.cpu.data 86816.482386                       # average ReadExReq miss latency
system.l2.ReadExReq_avg_miss_latency::total 86816.482386                       # average ReadExReq miss latency
system.l2.ReadExReq_mshr_misses::.cpu.data       136115                       # number of ReadExReq MSHR misses
system.l2.ReadExReq_mshr_misses::total         136115                       # number of ReadExReq MSHR misses
system.l2.ReadExReq_mshr_miss_latency::.cpu.data  10455885500                       # number of ReadExReq MSHR miss cycles
system.l2.ReadExReq_mshr_miss_latency::total  10455885500                       # number of ReadExReq MSHR miss cycles
system.l2.ReadExReq_mshr_miss_rate::.cpu.data     0.558531                       # mshr miss rate for ReadExReq accesses
system.l2.ReadExReq_mshr_miss_rate::total     0.558531                       # mshr miss rate for ReadExReq accesses
system.l2.ReadExReq_avg_mshr_miss_latency::.cpu.data 76816.555854                       # average ReadExReq mshr miss latency
system.l2.ReadExReq_avg_mshr_miss_latency::total 76816.555854                       # average ReadExReq mshr miss latency
system.l2.ReadCleanReq_hits::.cpu.inst             78                       # number of ReadCleanReq hits
system.l2.ReadCleanReq_hits::total                 78                       # number of ReadCleanReq hits
system.l2.ReadCleanReq_misses::.cpu.inst          669                       # number of ReadCleanReq misses
system.l2.ReadCleanReq_misses::total              669                       # number of ReadCleanReq misses
system.l2.ReadCleanReq_miss_latency::.cpu.inst     52613500                       # number of ReadCleanReq miss cycles
system.l2.ReadCleanReq_miss_latency::total     52613500                       # number of ReadCleanReq miss cycles
system.l2.ReadCleanReq_accesses::.cpu.inst          747                       # number of ReadCleanReq accesses(hits+misses)
system.l2.ReadCleanReq_accesses::total            747                       # number of ReadCleanReq accesses(hits+misses)
system.l2.ReadCleanReq_miss_rate::.cpu.inst     0.895582                       # miss rate for ReadCleanReq accesses
system.l2.ReadCleanReq_miss_rate::total      0.895582                       # miss rate for ReadCleanReq accesses
system.l2.ReadCleanReq_avg_miss_latency::.cpu.inst 78644.992526                       # average ReadCleanReq miss latency
system.l2.ReadCleanReq_avg_miss_latency::total 78644.992526                       # average ReadCleanReq miss latency
system.l2.ReadCleanReq_mshr_misses::.cpu.inst          669                       # number of ReadCleanReq MSHR misses
system.l2.ReadCleanReq_mshr_misses::total          669                       # number of ReadCleanReq MSHR misses
system.l2.ReadCleanReq_mshr_miss_latency::.cpu.inst     45923500                       # number of ReadCleanReq MSHR miss cycles
system.l2.ReadCleanReq_mshr_miss_latency::total     45923500                       # number of ReadCleanReq MSHR miss cycles
system.l2.ReadCleanReq_mshr_miss_rate::.cpu.inst     0.895582                       # mshr miss rate for ReadCleanReq accesses
system.l2.ReadCleanReq_mshr_miss_rate::total     0.895582                       # mshr miss rate for ReadCleanReq accesses
system.l2.ReadCleanReq_avg_mshr_miss_latency::.cpu.inst 68644.992526                       # average ReadCleanReq mshr miss latency
system.l2.ReadCleanReq_avg_mshr_miss_latency::total 68644.992526                       # average ReadCleanReq mshr miss latency
system.l2.ReadSharedReq_hits::.cpu.data        244840                       # number of ReadSharedReq hits
system.l2.ReadSharedReq_hits::total            244840                       # number of ReadSharedReq hits
system.l2.ReadSharedReq_misses::.cpu.data        64213                       # number of ReadSharedReq misses
system.l2.ReadSharedReq_misses::total           64213                       # number of ReadSharedReq misses
system.l2.ReadSharedReq_miss_latency::.cpu.data   5123096000                       # number of ReadSharedReq miss cycles
system.l2.ReadSharedReq_miss_latency::total   5123096000                       # number of ReadSharedReq miss cycles
system.l2.ReadSharedReq_accesses::.cpu.data       309053                       # number of ReadSharedReq accesses(hits+misses)
system.l2.ReadSharedReq_accesses::total        309053                       # number of ReadSharedReq accesses(hits+misses)
system.l2.ReadSharedReq_miss_rate::.cpu.data     0.207773                       # miss rate for ReadSharedReq accesses
system.l2.ReadSharedReq_miss_rate::total     0.207773                       # miss rate for ReadSharedReq accesses
system.l2.ReadSharedReq_avg_miss_latency::.cpu.data 79782.847710                       # average ReadSharedReq miss latency
system.l2.ReadSharedReq_avg_miss_latency::total 79782.847710                       # average ReadSharedReq miss latency
system.l2.ReadSharedReq_mshr_hits::.cpu.data            4                       # number of ReadSharedReq MSHR hits
system.l2.ReadSharedReq_mshr_hits::total            4                       # number of ReadSharedReq MSHR hits
system.l2.ReadSharedReq_mshr_misses::.cpu.data        64209                       # number of ReadSharedReq MSHR misses
system.l2.ReadSharedReq_mshr_misses::total        64209                       # number of ReadSharedReq MSHR misses
system.l2.ReadSharedReq_mshr_miss_latency::.cpu.data   4480762000                       # number of ReadSharedReq MSHR miss cycles
system.l2.ReadSharedReq_mshr_miss_latency::total   4480762000                       # number of ReadSharedReq MSHR miss cycles
system.l2.ReadSharedReq_mshr_miss_rate::.cpu.data     0.207760                       # mshr miss rate for ReadSharedReq accesses
system.l2.ReadSharedReq_mshr_miss_rate::total     0.207760                       # mshr miss rate for ReadSharedReq accesses
system.l2.ReadSharedReq_avg_mshr_miss_latency::.cpu.data 69784.017817                       # average ReadSharedReq mshr miss latency
system.l2.ReadSharedReq_avg_mshr_miss_latency::total 69784.017817                       # average ReadSharedReq mshr miss latency
system.l2.tags.pwrStateResidencyTicks::UNDEFINED  82534996500                       # Cumulative time (in ticks) in various power states
system.l2.tags.tagsinuse                 31884.887012                       # Cycle average of tags in use
system.l2.tags.total_refs                     1104435                       # Total number of references to valid blocks.
system.l2.tags.sampled_refs                    201114                       # Sample count of references to valid blocks.
system.l2.tags.avg_refs                      5.491587                       # Average number of references to valid blocks.
system.l2.tags.warmup_cycle                     77000                       # Cycle when the warmup percentage was hit.
system.l2.tags.occ_blocks::.writebacks      40.310361                       # Average occupied blocks per requestor
system.l2.tags.occ_blocks::.cpu.inst        83.142928                       # Average occupied blocks per requestor
system.l2.tags.occ_blocks::.cpu.data     31761.433724                       # Average occupied blocks per requestor
system.l2.tags.occ_percent::.writebacks      0.001230                       # Average percentage of cache occupancy
system.l2.tags.occ_percent::.cpu.inst        0.002537                       # Average percentage of cache occupancy
system.l2.tags.occ_percent::.cpu.data        0.969282                       # Average percentage of cache occupancy
system.l2.tags.occ_percent::total            0.973050                       # Average percentage of cache occupancy
system.l2.tags.occ_task_id_blocks::1024         32768                       # Occupied blocks per task id
system.l2.tags.age_task_id_blocks_1024::0           85                       # Occupied blocks per task id
system.l2.tags.age_task_id_blocks_1024::1          121                       # Occupied blocks per task id
system.l2.tags.age_task_id_blocks_1024::2         1184                       # Occupied blocks per task id
system.l2.tags.age_task_id_blocks_1024::3        16006                       # Occupied blocks per task id
system.l2.tags.age_task_id_blocks_1024::4        15372                       # Occupied blocks per task id
system.l2.tags.occ_task_id_percent::1024            1                       # Percentage of cache occupancy per task id
system.l2.tags.tag_accesses                   9036634                       # Number of tag accesses
system.l2.tags.data_accesses                  9036634                       # Number of data accesses
system.cpu_voltage_domain.voltage                   1                       # Voltage in Volts
system.mem_ctrls.pwrStateResidencyTicks::UNDEFINED  82534996500                       # Cumulative time (in ticks) in various power states
system.mem_ctrls.bytes_read::.cpu.inst          42816                       # Number of bytes read from this memory
system.mem_ctrls.bytes_read::.cpu.data       12820736                       # Number of bytes read from this memory
system.mem_ctrls.bytes_read::total           12863552                       # Number of bytes read from this memory
system.mem_ctrls.bytes_inst_read::.cpu.inst        42816                       # Number of instructions bytes read from this memory
system.mem_ctrls.bytes_inst_read::total         42816                       # Number of instructions bytes read from this memory
system.mem_ctrls.bytes_written::.writebacks      7109696                       # Number of bytes written to this memory
system.mem_ctrls.bytes_written::total         7109696                       # Number of bytes written to this memory
system.mem_ctrls.num_reads::.cpu.inst             669                       # Number of read requests responded to by this memory
system.mem_ctrls.num_reads::.cpu.data          200324                       # Number of read requests responded to by this memory
system.mem_ctrls.num_reads::total              200993                       # Number of read requests responded to by this memory
system.mem_ctrls.num_writes::.writebacks       111089                       # Number of write requests responded to by this memory
system.mem_ctrls.num_writes::total             111089                       # Number of write requests responded to by this memory
system.mem_ctrls.bw_read::.cpu.inst            518762                       # Total read bandwidth from this memory (bytes/s)
system.mem_ctrls.bw_read::.cpu.data         155336967                       # Total read bandwidth from this memory (bytes/s)
system.mem_ctrls.bw_read::total             155855728                       # Total read bandwidth from this memory (bytes/s)
system.mem_ctrls.bw_inst_read::.cpu.inst       518762                       # Instruction read bandwidth from this memory (bytes/s)
system.mem_ctrls.bw_inst_read::total           518762                       # Instruction read bandwidth from this memory (bytes/s)
system.mem_ctrls.bw_write::.writebacks       86141592                       # Write bandwidth from this memory (bytes/s)
system.mem_ctrls.bw_write::total             86141592                       # Write bandwidth from this memory (bytes/s)
system.mem_ctrls.bw_total::.writebacks       86141592                       # Total bandwidth to/from this memory (bytes/s)
system.mem_ctrls.bw_total::.cpu.inst           518762                       # Total bandwidth to/from this memory (bytes/s)
system.mem_ctrls.bw_total::.cpu.data        155336967                       # Total bandwidth to/from this memory (bytes/s)
system.mem_ctrls.bw_total::total            241997320                       # Total bandwidth to/from this memory (bytes/s)
system.mem_ctrls.avgPriority_.writebacks::samples    111089.00                       # Average QoS priority value for accepted requests
system.mem_ctrls.avgPriority_.cpu.inst::samples       669.00                       # Average QoS priority value for accepted requests
system.mem_ctrls.avgPriority_.cpu.data::samples    200291.00                       # Average QoS priority value for accepted requests
system.mem_ctrls.priorityMinLatency      0.000000018750                       # per QoS priority minimum request to response latency (s)
system.mem_ctrls.priorityMaxLatency      0.002928998250                       # per QoS priority maximum request to response latency (s)
system.mem_ctrls.numReadWriteTurnArounds         6643                       # Number of turnarounds from READ to WRITE
system.mem_ctrls.numWriteReadTurnArounds         6643                       # Number of turnarounds from WRITE to READ
system.mem_ctrls.numStayReadState              523433                       # Number of times bus staying in READ state
system.mem_ctrls.numStayWriteState             104541                       # Number of times bus staying in WRITE state
system.mem_ctrls.readReqs                      200993                       # Number of read requests accepted
system.mem_ctrls.writeReqs                     111089                       # Number of write requests accepted
system.mem_ctrls.readBursts                    200993                       # Number of DRAM read bursts, including those serviced by the write queue
system.mem_ctrls.writeBursts                   111089                       # Number of DRAM write bursts, including those merged in the write queue
system.mem_ctrls.servicedByWrQ                     33                       # Number of DRAM read bursts serviced by the write queue
system.mem_ctrls.mergedWrBursts                     0                       # Number of DRAM write bursts merged with an existing one
system.mem_ctrls.neitherReadNorWriteReqs            0                       # Number of requests that are neither read nor write
system.mem_ctrls.perBankRdBursts::0             12842                       # Per bank write bursts
system.mem_ctrls.perBankRdBursts::1             12745                       # Per bank write bursts
system.mem_ctrls.perBankRdBursts::2             12822                       # Per bank write bursts
system.mem_ctrls.perBankRdBursts::3             12536                       # Per bank write bursts
system.mem_ctrls.perBankRdBursts::4             12513                       # Per bank write bursts
system.mem_ctrls.perBankRdBursts::5             12344                       # Per bank write bursts
system.mem_ctrls.perBankRdBursts::6             12295                       # Per bank write bursts
system.mem_ctrls.perBankRdBursts::7             12466                       # Per bank write bursts
system.mem_ctrls.perBankRdBursts::8             12452                       # Per bank write bursts
system.mem_ctrls.perBankRdBursts::9             12398                       # Per bank write bursts
system.mem_ctrls.perBankRdBursts::10            12451                       # Per bank write bursts
system.mem_ctrls.perBankRdBursts::11            12468                       # Per bank write bursts
system.mem_ctrls.perBankRdBursts::12            12637                       # Per bank write bursts
system.mem_ctrls.perBankRdBursts::13            12712                       # Per bank write bursts
system.mem_ctrls.perBankRdBursts::14            12665                       # Per bank write bursts
system.mem_ctrls.perBankRdBursts::15            12614                       # Per bank write bursts
system.mem_ctrls.perBankWrBursts::0              7136                       # Per bank write bursts
system.mem_ctrls.perBankWrBursts::1              7134                       # Per bank write bursts
system.mem_ctrls.perBankWrBursts::2              7162                       # Per bank write bursts
system.mem_ctrls.perBankWrBursts::3              6979                       # Per bank write bursts
system.mem_ctrls.perBankWrBursts::4              6977                       # Per bank write bursts
system.mem_ctrls.perBankWrBursts::5              6933                       # Per bank write bursts
system.mem_ctrls.perBankWrBursts::6              6826                       # Per bank write bursts
system.mem_ctrls.perBankWrBursts::7              6801                       # Per bank write bursts
system.mem_ctrls.perBankWrBursts::8              6794                       # Per bank write bursts
system.mem_ctrls.perBankWrBursts::9              6773                       # Per bank write bursts
system.mem_ctrls.perBankWrBursts::10             6863                       # Per bank write bursts
system.mem_ctrls.perBankWrBursts::11             6810                       # Per bank write bursts
system.mem_ctrls.perBankWrBursts::12             6901                       # Per bank write bursts
system.mem_ctrls.perBankWrBursts::13             6997                       # Per bank write bursts
system.mem_ctrls.perBankWrBursts::14             7010                       # Per bank write bursts
system.mem_ctrls.perBankWrBursts::15             6968                       # Per bank write bursts
system.mem_ctrls.avgRdQLen                       1.09                       # Average read queue length when enqueuing
system.mem_ctrls.avgWrQLen                      24.55                       # Average write queue length when enqueuing
system.mem_ctrls.totQLat                   2922344750                       # Total ticks spent queuing
system.mem_ctrls.totBusLat                 1004800000                       # Total ticks spent in databus transfers
system.mem_ctrls.totMemAccLat              6690344750                       # Total ticks spent from burst creation until serviced by the DRAM
system.mem_ctrls.avgQLat                     14541.92                       # Average queueing delay per DRAM burst
system.mem_ctrls.avgBusLat                    5000.00                       # Average bus latency per DRAM burst
system.mem_ctrls.avgMemAccLat                33291.92                       # Average memory access latency per DRAM burst
system.mem_ctrls.numRdRetry                         0                       # Number of times read queue was full causing retry
system.mem_ctrls.numWrRetry                         0                       # Number of times write queue was full causing retry
system.mem_ctrls.readRowHits                   138072                       # Number of row buffer hits during reads
system.mem_ctrls.writeRowHits                   69707                       # Number of row buffer hits during writes
system.mem_ctrls.readRowHitRate                 68.71                       # Row buffer hit rate for reads
system.mem_ctrls.writeRowHitRate                62.75                       # Row buffer hit rate for writes
system.mem_ctrls.readPktSize::0                     0                       # Read request sizes (log2)
system.mem_ctrls.readPktSize::1                     0                       # Read request sizes (log2)
system.mem_ctrls.readPktSize::2                     0                       # Read request sizes (log2)
system.mem_ctrls.readPktSize::3                     0                       # Read request sizes (log2)
system.mem_ctrls.readPktSize::4                     0                       # Read request sizes (log2)
system.mem_ctrls.readPktSize::5                     0                       # Read request sizes (log2)
system.mem_ctrls.readPktSize::6                200993                       # Read request sizes (log2)
system.mem_ctrls.writePktSize::0                    0                       # Write request sizes (log2)
system.mem_ctrls.writePktSize::1                    0                       # Write request sizes (log2)
system.mem_ctrls.writePktSize::2                    0                       # Write request sizes (log2)
system.mem_ctrls.writePktSize::3                    0                       # Write request sizes (log2)
system.mem_ctrls.writePktSize::4                    0                       # Write request sizes (log2)
system.mem_ctrls.writePktSize::5                    0                       # Write request sizes (log2)
system.mem_ctrls.writePktSize::6               111089                       # Write request sizes (log2)
system.mem_ctrls.rdQLenPdf::0                  138784                       # What read queue length does an incoming req see
system.mem_ctrls.rdQLenPdf::1                   59533                       # What read queue length does an incoming req see
system.mem_ctrls.rdQLenPdf::2                    2332                       # What read queue length does an incoming req see
system.mem_ctrls.rdQLenPdf::3                     310                       # What read queue length does an incoming req see
system.mem_ctrls.rdQLenPdf::4                       1                       # What read queue length does an incoming req see
system.mem_ctrls.rdQLenPdf::5                       0                       # What read queue length does an incoming req see
system.mem_ctrls.rdQLenPdf::6                       0                       # What read queue length does an incoming req see
system.mem_ctrls.rdQLenPdf::7                       0                       # What read queue length does an incoming req see
system.mem_ctrls.rdQLenPdf::8                       0                       # What read queue length does an incoming req see
system.mem_ctrls.rdQLenPdf::9                       0                       # What read queue length does an incoming req see
system.mem_ctrls.rdQLenPdf::10                      0                       # What read queue length does an incoming req see
system.mem_ctrls.rdQLenPdf::11                      0                       # What read queue length does an incoming req see
system.mem_ctrls.rdQLenPdf::12                      0                       # What read queue length does an incoming req see
system.mem_ctrls.rdQLenPdf::13                      0                       # What read queue length does an incoming req see
system.mem_ctrls.rdQLenPdf::14                      0                       # What read queue length does an incoming req see
system.mem_ctrls.rdQLenPdf::15                      0                       # What read queue length does an incoming req see
system.mem_ctrls.rdQLenPdf::16                      0                       # What read queue length does an incoming req see
system.mem_ctrls.rdQLenPdf::17                      0                       # What read queue length does an incoming req see
system.mem_ctrls.rdQLenPdf::18                      0                       # What read queue length does an incoming req see
system.mem_ctrls.rdQLenPdf::19                      0                       # What read queue length does an incoming req see
system.mem_ctrls.rdQLenPdf::20                      0                       # What read queue length does an incoming req see
system.mem_ctrls.rdQLenPdf::21                      0                       # What read queue length does an incoming req see
system.mem_ctrls.rdQLenPdf::22                      0                       # What read queue length does an incoming req see
system.mem_ctrls.rdQLenPdf::23                      0                       # What read queue length does an incoming req see
system.mem_ctrls.rdQLenPdf::24                      0                       # What read queue length does an incoming req see
system.mem_ctrls.rdQLenPdf::25                      0                       # What read queue length does an incoming req see
system.mem_ctrls.rdQLenPdf::26                      0                       # What read queue length does an incoming req see
system.mem_ctrls.rdQLenPdf::27                      0                       # What read queue length does an incoming req see
system.mem_ctrls.rdQLenPdf::28                      0                       # What read queue length does an incoming req see
system.mem_ctrls.rdQLenPdf::29                      0                       # What read queue length does an incoming req see
system.mem_ctrls.rdQLenPdf::30                      0                       # What read queue length does an incoming req see
system.mem_ctrls.rdQLenPdf::31                      0                       # What read queue length does an incoming req see
system.mem_ctrls.wrQLenPdf::0                       1                       # What write queue length does an incoming req see
system.mem_ctrls.wrQLenPdf::1                       1                       # What write queue length does an incoming req see
system.mem_ctrls.wrQLenPdf::2                       1                       # What write queue length does an incoming req see
system.mem_ctrls.wrQLenPdf::3                       1                       # What write queue length does an incoming req see
system.mem_ctrls.wrQLenPdf::4                       1                       # What write queue length does an incoming req see
system.mem_ctrls.wrQLenPdf::5                       1                       # What write queue length does an incoming req see
system.mem_ctrls.wrQLenPdf::6                       1                       # What write queue length does an incoming req see
system.mem_ctrls.wrQLenPdf::7                       1                       # What write queue length does an incoming req see
system.mem_ctrls.wrQLenPdf::8                       1                       # What write queue length does an incoming req see
system.mem_ctrls.wrQLenPdf::9                       1                       # What write queue length does an incoming req see
system.mem_ctrls.wrQLenPdf::10                      1                       # What write queue length does an incoming req see
system.mem_ctrls.wrQLenPdf::11                      1                       # What write queue length does an incoming req see
system.mem_ctrls.wrQLenPdf::12                      1                       # What write queue length does an incoming req see
system.mem_ctrls.wrQLenPdf::13                      1                       # What write queue length does an incoming req see
system.mem_ctrls.wrQLenPdf::14                      1                       # What write queue length does an incoming req see
system.mem_ctrls.wrQLenPdf::15                   2254                       # What write queue length does an incoming req see
system.mem_ctrls.wrQLenPdf::16                   2291                       # What write queue length does an incoming req see
system.mem_ctrls.wrQLenPdf::17                   5169                       # What write queue length does an incoming req see
system.mem_ctrls.wrQLenPdf::18                   6647                       # What write queue length does an incoming req see
system.mem_ctrls.wrQLenPdf::19                   6697                       # What write queue length does an incoming req see
system.mem_ctrls.wrQLenPdf::20                   6734                       # What write queue length does an incoming req see
system.mem_ctrls.wrQLenPdf::21                   6694                       # What write queue length does an incoming req see
system.mem_ctrls.wrQLenPdf::22                   6696                       # What write queue length does an incoming req see
system.mem_ctrls.wrQLenPdf::23                   6700                       # What write queue length does an incoming req see
system.mem_ctrls.wrQLenPdf::24                   6716                       # What write queue length does an incoming req see
system.mem_ctrls.wrQLenPdf::25                   6766                       # What write queue length does an incoming req see
system.mem_ctrls.wrQLenPdf::26                   7126                       # What write queue length does an incoming req see
system.mem_ctrls.wrQLenPdf::27                   6670                       # What write queue length does an incoming req see
system.mem_ctrls.wrQLenPdf::28                   6742                       # What write queue length does an incoming req see
system.mem_ctrls.wrQLenPdf::29                   6781                       # What write queue length does an incoming req see
system.mem_ctrls.wrQLenPdf::30                   6658                       # What write queue length does an incoming req see
system.mem_ctrls.wrQLenPdf::31                   7079                       # What write queue length does an incoming req see
system.mem_ctrls.wrQLenPdf::32                   6644                       # What write queue length does an incoming req see
system.mem_ctrls.wrQLenPdf::33                      9                       # What write queue length does an incoming req see
system.mem_ctrls.wrQLenPdf::34                      1                       # What write queue length does an incoming req see
system.mem_ctrls.wrQLenPdf::35                      0                       # What write queue length does an incoming req see
system.mem_ctrls.wrQLenPdf::36                      0                       # What write queue length does an incoming req see
system.mem_ctrls.wrQLenPdf::37                      0                       # What write queue length does an incoming req see
system.mem_ctrls.wrQLenPdf::38                      0                       # What write queue length does an incoming req see
system.mem_ctrls.wrQLenPdf::39                      0                       # What write queue length does an incoming req see
system.mem_ctrls.wrQLenPdf::40                      0                       # What write queue length does an incoming req see
system.mem_ctrls.wrQLenPdf::41                      0                       # What write queue length does an incoming req see
system.mem_ctrls.wrQLenPdf::42                      0                       # What write queue length does an incoming req see
system.mem_ctrls.wrQLenPdf::43                      0                       # What write queue length does an incoming req see
system.mem_ctrls.wrQLenPdf::44                      0                       # What write queue length does an incoming req see
system.mem_ctrls.wrQLenPdf::45                      0                       # What write queue length does an incoming req see
system.mem_ctrls.wrQLenPdf::46                      0                       # What write queue length does an incoming req see
system.mem_ctrls.wrQLenPdf::47                      0                       # What write queue length does an incoming req see
system.mem_ctrls.wrQLenPdf::48                      0                       # What write queue length does an incoming req see
system.mem_ctrls.wrQLenPdf::49                      0                       # What write queue length does an incoming req see
system.mem_ctrls.wrQLenPdf::50                      0                       # What write queue length does an incoming req see
system.mem_ctrls.wrQLenPdf::51                      0                       # What write queue length does an incoming req see
system.mem_ctrls.wrQLenPdf::52                      0                       # What write queue length does an incoming req see
system.mem_ctrls.wrQLenPdf::53                      0                       # What write queue length does an incoming req see
system.mem_ctrls.wrQLenPdf::54                      0                       # What write queue length does an incoming req see
system.mem_ctrls.wrQLenPdf::55                      0                       # What write queue length does an incoming req see
system.mem_ctrls.wrQLenPdf::56                      0                       # What write queue length does an incoming req see
system.mem_ctrls.wrQLenPdf::57                      0                       # What write queue length does an incoming req see
system.mem_ctrls.wrQLenPdf::58                      0                       # What write queue length does an incoming req see
system.mem_ctrls.wrQLenPdf::59                      0                       # What write queue length does an incoming req see
system.mem_ctrls.wrQLenPdf::60                      0                       # What write queue length does an incoming req see
system.mem_ctrls.wrQLenPdf::61                      0                       # What write queue length does an incoming req see
system.mem_ctrls.wrQLenPdf::62                      0                       # What write queue length does an incoming req see
system.mem_ctrls.wrQLenPdf::63                      0                       # What write queue length does an incoming req see
system.mem_ctrls.bytesPerActivate::samples       104239                       # Bytes accessed per row activation
system.mem_ctrls.bytesPerActivate::mean    191.570218                       # Bytes accessed per row activation
system.mem_ctrls.bytesPerActivate::gmean   111.538073                       # Bytes accessed per row activation
system.mem_ctrls.bytesPerActivate::stdev   256.419718                       # Bytes accessed per row activation
system.mem_ctrls.bytesPerActivate::0-127        69167     66.35%     66.35% # Bytes accessed per row activation
system.mem_ctrls.bytesPerActivate::128-255        13847     13.28%     79.64% # Bytes accessed per row activation
system.mem_ctrls.bytesPerActivate::256-383         2473      2.37%     82.01% # Bytes accessed per row activation
system.mem_ctrls.bytesPerActivate::384-511         1440      1.38%     83.39% # Bytes accessed per row activation
system.mem_ctrls.bytesPerActivate::512-639         9320      8.94%     92.33% # Bytes accessed per row activation
system.mem_ctrls.bytesPerActivate::640-767         1588      1.52%     93.86% # Bytes accessed per row activation
system.mem_ctrls.bytesPerActivate::768-895          376      0.36%     94.22% # Bytes accessed per row activation
system.mem_ctrls.bytesPerActivate::896-1023          351      0.34%     94.55% # Bytes accessed per row activation
system.mem_ctrls.bytesPerActivate::1024-1151         5677      5.45%    100.00% # Bytes accessed per row activation
system.mem_ctrls.bytesPerActivate::total       104239                       # Bytes accessed per row activation
system.mem_ctrls.rdPerTurnAround::samples         6643                       # Reads before turning the bus around for writes
system.mem_ctrls.rdPerTurnAround::mean      30.249887                       # Reads before turning the bus around for writes
system.mem_ctrls.rdPerTurnAround::gmean     23.768888                       # Reads before turning the bus around for writes
system.mem_ctrls.rdPerTurnAround::stdev     52.443235                       # Reads before turning the bus around for writes
system.mem_ctrls.rdPerTurnAround::0-127          6475     97.47%     97.47% # Reads before turning the bus around for writes
system.mem_ctrls.rdPerTurnAround::128-255           35      0.53%     98.00% # Reads before turning the bus around for writes
system.mem_ctrls.rdPerTurnAround::256-383          130      1.96%     99.95% # Reads before turning the bus around for writes
system.mem_ctrls.rdPerTurnAround::512-639            1      0.02%     99.97% # Reads before turning the bus around for writes
system.mem_ctrls.rdPerTurnAround::1664-1791            1      0.02%     99.98% # Reads before turning the bus around for writes
system.mem_ctrls.rdPerTurnAround::2432-2559            1      0.02%    100.00% # Reads before turning the bus around for writes
system.mem_ctrls.rdPerTurnAround::total          6643                       # Reads before turning the bus around for writes
system.mem_ctrls.wrPerTurnAround::samples         6643                       # Writes before turning the bus around for reads
system.mem_ctrls.wrPerTurnAround::mean      16.718952                       # Writes before turning the bus around for reads
[...]
system.cpu.icache.ReadReq_mshr_misses::.cpu.inst          747                       # number of ReadReq MSHR misses
system.cpu.icache.ReadReq_mshr_misses::total          747                       # number of ReadReq MSHR misses
system.cpu.icache.ReadReq_mshr_miss_latency::.cpu.inst     54573000                       # number of ReadReq MSHR miss cycles
system.cpu.icache.ReadReq_mshr_miss_latency::total     54573000                       # number of ReadReq MSHR miss cycles
system.cpu.icache.ReadReq_mshr_miss_rate::.cpu.inst     0.000077                       # mshr miss rate for ReadReq accesses
system.cpu.icache.ReadReq_mshr_miss_rate::total     0.000077                       # mshr miss rate for ReadReq accesses
system.cpu.icache.ReadReq_avg_mshr_miss_latency::.cpu.inst 73056.224900                       # average ReadReq mshr miss latency
system.cpu.icache.ReadReq_avg_mshr_miss_latency::total 73056.224900                       # average ReadReq mshr miss latency
system.cpu.icache.tags.pwrStateResidencyTicks::UNDEFINED  82534996500                       # Cumulative time (in ticks) in various power states
system.cpu.icache.tags.tagsinuse           360.805214                       # Cycle average of tags in use
system.cpu.icache.tags.total_refs             9663251                       # Total number of references to valid blocks.
system.cpu.icache.tags.sampled_refs               747                       # Sample count of references to valid blocks.
system.cpu.icache.tags.avg_refs          12936.078983                       # Average number of references to valid blocks.
system.cpu.icache.tags.warmup_cycle             87500                       # Cycle when the warmup percentage was hit.
system.cpu.icache.tags.occ_blocks::.cpu.inst   360.805214                       # Average occupied blocks per requestor
system.cpu.icache.tags.occ_percent::.cpu.inst     0.704698                       # Average percentage of cache occupancy
system.cpu.icache.tags.occ_percent::total     0.704698                       # Average percentage of cache occupancy
system.cpu.icache.tags.occ_task_id_blocks::1024          445                       # Occupied blocks per task id
system.cpu.icache.tags.age_task_id_blocks_1024::3          106                       # Occupied blocks per task id
system.cpu.icache.tags.age_task_id_blocks_1024::4          339                       # Occupied blocks per task id
system.cpu.icache.tags.occ_task_id_percent::1024     0.869141                       # Percentage of cache occupancy per task id
system.cpu.icache.tags.tag_accesses          19327249                       # Number of tag accesses
system.cpu.icache.tags.data_accesses         19327249                       # Number of data accesses
system.cpu.dtb.walker.pwrStateResidencyTicks::UNDEFINED  82534996500                       # Cumulative time (in ticks) in various power states
system.cpu.dtb.stage2_mmu.stage2_tlb.walker.pwrStateResidencyTicks::UNDEFINED  82534996500                       # Cumulative time (in ticks) in various power states
system.cpu.dcache.pwrStateResidencyTicks::UNDEFINED  82534996500                       # Cumulative time (in ticks) in various power states
system.cpu.dcache.demand_hits::.cpu.data     51462835                       # number of demand (read+write) hits
system.cpu.dcache.demand_hits::total         51462835                       # number of demand (read+write) hits
system.cpu.dcache.overall_hits::.cpu.data     51463344                       # number of overall hits
system.cpu.dcache.overall_hits::total        51463344                       # number of overall hits
system.cpu.dcache.demand_misses::.cpu.data       603830                       # number of demand (read+write) misses
system.cpu.dcache.demand_misses::total         603830                       # number of demand (read+write) misses
system.cpu.dcache.overall_misses::.cpu.data       611740                       # number of overall misses
system.cpu.dcache.overall_misses::total        611740                       # number of overall misses
system.cpu.dcache.demand_miss_latency::.cpu.data  22940814500                       # number of demand (read+write) miss cycles
system.cpu.dcache.demand_miss_latency::total  22940814500                       # number of demand (read+write) miss cycles
system.cpu.dcache.overall_miss_latency::.cpu.data  22940814500                       # number of overall miss cycles
system.cpu.dcache.overall_miss_latency::total  22940814500                       # number of overall miss cycles
system.cpu.dcache.demand_accesses::.cpu.data     52066665                       # number of demand (read+write) accesses
system.cpu.dcache.demand_accesses::total     52066665                       # number of demand (read+write) accesses
system.cpu.dcache.overall_accesses::.cpu.data     52075084                       # number of overall (read+write) accesses
system.cpu.dcache.overall_accesses::total     52075084                       # number of overall (read+write) accesses
system.cpu.dcache.demand_miss_rate::.cpu.data     0.011597                       # miss rate for demand accesses
system.cpu.dcache.demand_miss_rate::total     0.011597                       # miss rate for demand accesses
system.cpu.dcache.overall_miss_rate::.cpu.data     0.011747                       # miss rate for overall accesses
system.cpu.dcache.overall_miss_rate::total     0.011747                       # miss rate for overall accesses
system.cpu.dcache.demand_avg_miss_latency::.cpu.data 37992.174122                       # average overall miss latency
system.cpu.dcache.demand_avg_miss_latency::total 37992.174122                       # average overall miss latency
system.cpu.dcache.overall_avg_miss_latency::.cpu.data 37500.922778                       # average overall miss latency
system.cpu.dcache.overall_avg_miss_latency::total 37500.922778                       # average overall miss latency
system.cpu.dcache.blocked_cycles::no_mshrs       204154                       # number of cycles access was blocked
system.cpu.dcache.blocked_cycles::no_targets            0                       # number of cycles access was blocked
system.cpu.dcache.blocked::no_mshrs              3296                       # number of cycles access was blocked
system.cpu.dcache.blocked::no_targets               0                       # number of cycles access was blocked
system.cpu.dcache.avg_blocked_cycles::no_mshrs    61.939927                       # average number of cycles each access was blocked
system.cpu.dcache.avg_blocked_cycles::no_targets          nan                       # average number of cycles each access was blocked
system.cpu.dcache.writebacks::.writebacks       477138                       # number of writebacks
system.cpu.dcache.writebacks::total            477138                       # number of writebacks
system.cpu.dcache.demand_mshr_hits::.cpu.data        58980                       # number of demand (read+write) MSHR hits
system.cpu.dcache.demand_mshr_hits::total        58980                       # number of demand (read+write) MSHR hits
system.cpu.dcache.overall_mshr_hits::.cpu.data        58980                       # number of overall MSHR hits
system.cpu.dcache.overall_mshr_hits::total        58980                       # number of overall MSHR hits
system.cpu.dcache.demand_mshr_misses::.cpu.data       544850                       # number of demand (read+write) MSHR misses
system.cpu.dcache.demand_mshr_misses::total       544850                       # number of demand (read+write) MSHR misses
system.cpu.dcache.overall_mshr_misses::.cpu.data       552755                       # number of overall MSHR misses
system.cpu.dcache.overall_mshr_misses::total       552755                       # number of overall MSHR misses
system.cpu.dcache.demand_mshr_miss_latency::.cpu.data  20803052000                       # number of demand (read+write) MSHR miss cycles
system.cpu.dcache.demand_mshr_miss_latency::total  20803052000                       # number of demand (read+write) MSHR miss cycles
system.cpu.dcache.overall_mshr_miss_latency::.cpu.data  21472339499                       # number of overall MSHR miss cycles
system.cpu.dcache.overall_mshr_miss_latency::total  21472339499                       # number of overall MSHR miss cycles
system.cpu.dcache.demand_mshr_miss_rate::.cpu.data     0.010464                       # mshr miss rate for demand accesses
system.cpu.dcache.demand_mshr_miss_rate::total     0.010464                       # mshr miss rate for demand accesses
system.cpu.dcache.overall_mshr_miss_rate::.cpu.data     0.010615                       # mshr miss rate for overall accesses
system.cpu.dcache.overall_mshr_miss_rate::total     0.010615                       # mshr miss rate for overall accesses
system.cpu.dcache.demand_avg_mshr_miss_latency::.cpu.data 38181.246215                       # average overall mshr miss latency
system.cpu.dcache.demand_avg_mshr_miss_latency::total 38181.246215                       # average overall mshr miss latency
system.cpu.dcache.overall_avg_mshr_miss_latency::.cpu.data 38846.033955                       # average overall mshr miss latency
system.cpu.dcache.overall_avg_mshr_miss_latency::total 38846.033955                       # average overall mshr miss latency
system.cpu.dcache.replacements                 550706                       # number of replacements
system.cpu.dcache.ReadReq_hits::.cpu.data     40814827                       # number of ReadReq hits
system.cpu.dcache.ReadReq_hits::total        40814827                       # number of ReadReq hits
system.cpu.dcache.ReadReq_misses::.cpu.data       301747                       # number of ReadReq misses
system.cpu.dcache.ReadReq_misses::total        301747                       # number of ReadReq misses
system.cpu.dcache.ReadReq_miss_latency::.cpu.data   7813850500                       # number of ReadReq miss cycles
system.cpu.dcache.ReadReq_miss_latency::total   7813850500                       # number of ReadReq miss cycles
system.cpu.dcache.ReadReq_accesses::.cpu.data     41116574                       # number of ReadReq accesses(hits+misses)
system.cpu.dcache.ReadReq_accesses::total     41116574                       # number of ReadReq accesses(hits+misses)
system.cpu.dcache.ReadReq_miss_rate::.cpu.data     0.007339                       # miss rate for ReadReq accesses
system.cpu.dcache.ReadReq_miss_rate::total     0.007339                       # miss rate for ReadReq accesses
system.cpu.dcache.ReadReq_avg_miss_latency::.cpu.data 25895.370956                       # average ReadReq miss latency
system.cpu.dcache.ReadReq_avg_miss_latency::total 25895.370956                       # average ReadReq miss latency
system.cpu.dcache.ReadReq_mshr_hits::.cpu.data          599                       # number of ReadReq MSHR hits
system.cpu.dcache.ReadReq_mshr_hits::total          599                       # number of ReadReq MSHR hits
system.cpu.dcache.ReadReq_mshr_misses::.cpu.data       301148                       # number of ReadReq MSHR misses
system.cpu.dcache.ReadReq_mshr_misses::total       301148                       # number of ReadReq MSHR misses
system.cpu.dcache.ReadReq_mshr_miss_latency::.cpu.data   7489700000                       # number of ReadReq MSHR miss cycles
system.cpu.dcache.ReadReq_mshr_miss_latency::total   7489700000                       # number of ReadReq MSHR miss cycles
system.cpu.dcache.ReadReq_mshr_miss_rate::.cpu.data     0.007324                       # mshr miss rate for ReadReq accesses
system.cpu.dcache.ReadReq_mshr_miss_rate::total     0.007324                       # mshr miss rate for ReadReq accesses
system.cpu.dcache.ReadReq_avg_mshr_miss_latency::.cpu.data 24870.495570                       # average ReadReq mshr miss latency
system.cpu.dcache.ReadReq_avg_mshr_miss_latency::total 24870.495570                       # average ReadReq mshr miss latency
system.cpu.dcache.WriteReq_hits::.cpu.data     10648008                       # number of WriteReq hits
system.cpu.dcache.WriteReq_hits::total       10648008                       # number of WriteReq hits
system.cpu.dcache.WriteReq_misses::.cpu.data       302083                       # number of WriteReq misses
system.cpu.dcache.WriteReq_misses::total       302083                       # number of WriteReq misses
system.cpu.dcache.WriteReq_miss_latency::.cpu.data  15126964000                       # number of WriteReq miss cycles
system.cpu.dcache.WriteReq_miss_latency::total  15126964000                       # number of WriteReq miss cycles
system.cpu.dcache.WriteReq_accesses::.cpu.data     10950091                       # number of WriteReq accesses(hits+misses)
system.cpu.dcache.WriteReq_accesses::total     10950091                       # number of WriteReq accesses(hits+misses)
system.cpu.dcache.WriteReq_miss_rate::.cpu.data     0.027587                       # miss rate for WriteReq accesses
system.cpu.dcache.WriteReq_miss_rate::total     0.027587                       # miss rate for WriteReq accesses
system.cpu.dcache.WriteReq_avg_miss_latency::.cpu.data 50075.522290                       # average WriteReq miss latency
system.cpu.dcache.WriteReq_avg_miss_latency::total 50075.522290                       # average WriteReq miss latency
system.cpu.dcache.WriteReq_mshr_hits::.cpu.data        58381                       # number of WriteReq MSHR hits
system.cpu.dcache.WriteReq_mshr_hits::total        58381                       # number of WriteReq MSHR hits
system.cpu.dcache.WriteReq_mshr_misses::.cpu.data       243702                       # number of WriteReq MSHR misses
system.cpu.dcache.WriteReq_mshr_misses::total       243702                       # number of WriteReq MSHR misses
system.cpu.dcache.WriteReq_mshr_miss_latency::.cpu.data  13313352000                       # number of WriteReq MSHR miss cycles
system.cpu.dcache.WriteReq_mshr_miss_latency::total  13313352000                       # number of WriteReq MSHR miss cycles
system.cpu.dcache.WriteReq_mshr_miss_rate::.cpu.data     0.022256                       # mshr miss rate for WriteReq accesses
system.cpu.dcache.WriteReq_mshr_miss_rate::total     0.022256                       # mshr miss rate for WriteReq accesses
system.cpu.dcache.WriteReq_avg_mshr_miss_latency::.cpu.data 54629.637836                       # average WriteReq mshr miss latency
system.cpu.dcache.WriteReq_avg_mshr_miss_latency::total 54629.637836                       # average WriteReq mshr miss latency
system.cpu.dcache.SoftPFReq_hits::.cpu.data          509                       # number of SoftPFReq hits
system.cpu.dcache.SoftPFReq_hits::total           509                       # number of SoftPFReq hits
system.cpu.dcache.SoftPFReq_misses::.cpu.data         7910                       # number of SoftPFReq misses
system.cpu.dcache.SoftPFReq_misses::total         7910                       # number of SoftPFReq misses
system.cpu.dcache.SoftPFReq_accesses::.cpu.data         8419                       # number of SoftPFReq accesses(hits+misses)
system.cpu.dcache.SoftPFReq_accesses::total         8419                       # number of SoftPFReq accesses(hits+misses)
system.cpu.dcache.SoftPFReq_miss_rate::.cpu.data     0.939542                       # miss rate for SoftPFReq accesses
system.cpu.dcache.SoftPFReq_miss_rate::total     0.939542                       # miss rate for SoftPFReq accesses
system.cpu.dcache.SoftPFReq_mshr_misses::.cpu.data         7905                       # number of SoftPFReq MSHR misses
system.cpu.dcache.SoftPFReq_mshr_misses::total         7905                       # number of SoftPFReq MSHR misses
system.cpu.dcache.SoftPFReq_mshr_miss_latency::.cpu.data    669287499                       # number of SoftPFReq MSHR miss cycles
system.cpu.dcache.SoftPFReq_mshr_miss_latency::total    669287499                       # number of SoftPFReq MSHR miss cycles
system.cpu.dcache.SoftPFReq_mshr_miss_rate::.cpu.data     0.938948                       # mshr miss rate for SoftPFReq accesses
system.cpu.dcache.SoftPFReq_mshr_miss_rate::total     0.938948                       # mshr miss rate for SoftPFReq accesses
system.cpu.dcache.SoftPFReq_avg_mshr_miss_latency::.cpu.data 84666.350285                       # average SoftPFReq mshr miss latency
system.cpu.dcache.SoftPFReq_avg_mshr_miss_latency::total 84666.350285                       # average SoftPFReq mshr miss latency
system.cpu.dcache.LoadLockedReq_hits::.cpu.data           38                       # number of LoadLockedReq hits
system.cpu.dcache.LoadLockedReq_hits::total           38                       # number of LoadLockedReq hits
system.cpu.dcache.LoadLockedReq_accesses::.cpu.data           38                       # number of LoadLockedReq accesses(hits+misses)
system.cpu.dcache.LoadLockedReq_accesses::total           38                       # number of LoadLockedReq accesses(hits+misses)
system.cpu.dcache.StoreCondReq_hits::.cpu.data           38                       # number of StoreCondReq hits
system.cpu.dcache.StoreCondReq_hits::total           38                       # number of StoreCondReq hits
system.cpu.dcache.StoreCondReq_accesses::.cpu.data           38                       # number of StoreCondReq accesses(hits+misses)
system.cpu.dcache.StoreCondReq_accesses::total           38                       # number of StoreCondReq accesses(hits+misses)
system.cpu.dcache.tags.pwrStateResidencyTicks::UNDEFINED  82534996500                       # Cumulative time (in ticks) in various power states
system.cpu.dcache.tags.tagsinuse          2012.036657                       # Cycle average of tags in use
system.cpu.dcache.tags.total_refs            52016174                       # Total number of references to valid blocks.
system.cpu.dcache.tags.sampled_refs            552754                       # Sample count of references to valid blocks.
system.cpu.dcache.tags.avg_refs             94.103659                       # Average number of references to valid blocks.
system.cpu.dcache.tags.warmup_cycle            176500                       # Cycle when the warmup percentage was hit.
system.cpu.dcache.tags.occ_blocks::.cpu.data  2012.036657                       # Average occupied blocks per requestor
system.cpu.dcache.tags.occ_percent::.cpu.data     0.982440                       # Average percentage of cache occupancy
system.cpu.dcache.tags.occ_percent::total     0.982440                       # Average percentage of cache occupancy
system.cpu.dcache.tags.occ_task_id_blocks::1024         2048                       # Occupied blocks per task id
system.cpu.dcache.tags.age_task_id_blocks_1024::0          228                       # Occupied blocks per task id
system.cpu.dcache.tags.age_task_id_blocks_1024::1          584                       # Occupied blocks per task id
system.cpu.dcache.tags.age_task_id_blocks_1024::2         1204                       # Occupied blocks per task id
system.cpu.dcache.tags.age_task_id_blocks_1024::3           31                       # Occupied blocks per task id
system.cpu.dcache.tags.age_task_id_blocks_1024::4            1                       # Occupied blocks per task id
system.cpu.dcache.tags.occ_task_id_percent::1024            1                       # Percentage of cache occupancy per task id
system.cpu.dcache.tags.tag_accesses         104703074                       # Number of tag accesses
system.cpu.dcache.tags.data_accesses        104703074                       # Number of data accesses
system.cpu.itb.walker.pwrStateResidencyTicks::UNDEFINED  82534996500                       # Cumulative time (in ticks) in various power states
system.cpu.itb.stage2_mmu.stage2_tlb.walker.pwrStateResidencyTicks::UNDEFINED  82534996500                       # Cumulative time (in ticks) in various power states

---------- End Simulation Statistics   ----------
