
---------- Begin Simulation Statistics ----------
final_tick                                82438689000                       # Number of ticks from beginning of simulation (restored from checkpoints and never reset)
host_inst_rate                                 368722                       # Simulator instruction rate (inst/s)
host_mem_usage                                 693812                       # Number of bytes of host memory used
host_op_rate                                   369446                       # Simulator op (including micro ops) rate (op/s)
host_seconds                                   271.21                       # Real time elapsed on the host
host_tick_rate                              303969742                       # Simulator tick rate (ticks/s)
sim_freq                                 1000000000000                       # Frequency of simulated ticks
sim_insts                                   100000001                       # Number of instructions simulated
sim_ops                                     100196370                       # Number of ops (including micro ops) simulated
sim_seconds                                  0.082439                       # Number of seconds simulated
sim_ticks                                 82438689000                       # Number of ticks simulated
system.cpu.branchPred.BTBCorrect                    0                       # Number of correct BTB predictions (this stat may not work properly.
system.cpu.branchPred.BTBHitPct             99.618093                       # BTB Hit Percentage
system.cpu.branchPred.BTBHits                 2095622                       # Number of BTB hits
system.cpu.branchPred.BTBLookups              2103656                       # Number of BTB lookups
system.cpu.branchPred.RASInCorrect                  6                       # Number of incorrect RAS predictions.
system.cpu.branchPred.condIncorrect             81391                       # Number of conditional branches incorrect
system.cpu.branchPred.condPredicted           3728120                       # Number of conditional branches predicted
system.cpu.branchPred.indirectHits                293                       # Number of indirect target hits.
system.cpu.branchPred.indirectLookups             998                       # Number of indirect predictor lookups.
system.cpu.branchPred.indirectMisses              705                       # Number of indirect misses.
system.cpu.branchPred.lookups                 4478238                       # Number of BP lookups
system.cpu.branchPred.usedRAS                   65357                       # Number of times the RAS was used to get a target.
system.cpu.branchPredindirectMispredicted          168                       # Number of mispredicted indirect branches.
system.cpu.committedInsts                   100000001                       # Number of instructions committed
system.cpu.committedOps                     100196370                       # Number of ops (including micro ops) committed
system.cpu.cpi                               1.648774                       # CPI: cycles per instruction
system.cpu.discardedOps                        190813                       # Number of ops (including micro ops) which were discarded before commit
system.cpu.dtb.accesses                             0                       # DTB accesses
system.cpu.dtb.align_faults                         0                       # Number of TLB faults due to alignment restrictions
system.cpu.dtb.domain_faults                        0                       # Number of TLB faults due to domain restrictions
system.cpu.dtb.flush_entries                        0                       # Number of entries that have been flushed from TLB
system.cpu.dtb.flush_tlb                            0                       # Number of times complete TLB was flushed
system.cpu.dtb.flush_tlb_asid                       0                       # Number of times TLB was flushed by ASID
system.cpu.dtb.flush_tlb_mva                        0                       # Number of times TLB was flushed by MVA
system.cpu.dtb.flush_tlb_mva_asid                   0                       # Number of times TLB was flushed by MVA & ASID
system.cpu.dtb.hits                                 0                       # DTB hits
system.cpu.dtb.inst_accesses                        0                       # ITB inst accesses
system.cpu.dtb.inst_hits                            0                       # ITB inst hits
system.cpu.dtb.inst_misses                          0                       # ITB inst misses
system.cpu.dtb.misses                               0                       # DTB misses
system.cpu.dtb.perms_faults                         0                       # Number of TLB faults due to permissions restrictions
system.cpu.dtb.prefetch_faults                      0                       # Number of TLB faults due to prefetch
system.cpu.dtb.read_accesses                        0                       # DTB read accesses
system.cpu.dtb.read_hits                            0                       # DTB read hits
system.cpu.dtb.read_misses                          0                       # DTB read misses
system.cpu.dtb.stage2_mmu.stage2_tlb.accesses            0                       # DTB accesses
system.cpu.dtb.stage2_mmu.stage2_tlb.align_faults            0                       # Number of TLB faults due to alignment restrictions
system.cpu.dtb.stage2_mmu.stage2_tlb.domain_faults            0                       # Number of TLB faults due to domain restrictions
system.cpu.dtb.stage2_mmu.stage2_tlb.flush_entries            0                       # Number of entries that have been flushed from TLB
system.cpu.dtb.stage2_mmu.stage2_tlb.flush_tlb            0                       # Number of times complete TLB was flushed
system.cpu.dtb.stage2_mmu.stage2_tlb.flush_tlb_asid            0                       # Number of times TLB was flushed by ASID
system.cpu.dtb.stage2_mmu.stage2_tlb.flush_tlb_mva            0                       # Number of times TLB was flushed by MVA
system.cpu.dtb.stage2_mmu.stage2_tlb.flush_tlb_mva_asid            0                       # Number of times TLB was flushed by MVA & ASID
system.cpu.dtb.stage2_mmu.stage2_tlb.hits            0                       # DTB hits
system.cpu.dtb.stage2_mmu.stage2_tlb.inst_accesses            0                       # ITB inst accesses
system.cpu.dtb.stage2_mmu.stage2_tlb.inst_hits            0                       # ITB inst hits
system.cpu.dtb.stage2_mmu.stage2_tlb.inst_misses            0                       # ITB inst misses
system.cpu.dtb.stage2_mmu.stage2_tlb.misses            0                       # DTB misses
system.cpu.dtb.stage2_mmu.stage2_tlb.perms_faults            0                       # Number of TLB faults due to permissions restrictions
system.cpu.dtb.stage2_mmu.stage2_tlb.prefetch_faults            0                       # Number of TLB faults due to prefetch
system.cpu.dtb.stage2_mmu.stage2_tlb.read_accesses            0                       # DTB read accesses
system.cpu.dtb.stage2_mmu.stage2_tlb.read_hits            0                       # DTB read hits
system.cpu.dtb.stage2_mmu.stage2_tlb.read_misses            0                       # DTB read misses
system.cpu.dtb.stage2_mmu.stage2_tlb.walker.walkRequestOrigin_Requested::Data            0                       # Table walker requests started/completed, data/inst
system.cpu.dtb.stage2_mmu.stage2_tlb.walker.walkRequestOrigin_Requested::Inst            0                       # Table walker requests started/completed, data/inst
system.cpu.dtb.stage2_mmu.stage2_tlb.walker.walkRequestOrigin_Requested::total            0                       # Table walker requests started/completed, data/inst
system.cpu.dtb.stage2_mmu.stage2_tlb.walker.walkRequestOrigin_Completed::Data            0                       # Table walker requests started/completed, data/inst
system.cpu.dtb.stage2_mmu.stage2_tlb.walker.walkRequestOrigin_Completed::Inst            0                       # Table walker requests started/completed, data/inst
system.cpu.dtb.stage2_mmu.stage2_tlb.walker.walkRequestOrigin_Completed::total            0                       # Table walker requests started/completed, data/inst
system.cpu.dtb.stage2_mmu.stage2_tlb.walker.walkRequestOrigin::total            0                       # Table walker requests started/completed, data/inst
system.cpu.dtb.stage2_mmu.stage2_tlb.walker.walks            0                       # Table walker walks requested
system.cpu.dtb.stage2_mmu.stage2_tlb.write_accesses            0                       # DTB write accesses
system.cpu.dtb.stage2_mmu.stage2_tlb.write_hits            0                       # DTB write hits
system.cpu.dtb.stage2_mmu.stage2_tlb.write_misses            0                       # DTB write misses
system.cpu.dtb.walker.walkRequestOrigin_Requested::Data            0                       # Table walker requests started/completed, data/inst
system.cpu.dtb.walker.walkRequestOrigin_Requested::Inst            0                       # Table walker requests started/completed, data/inst
system.cpu.dtb.walker.walkRequestOrigin_Requested::total            0                       # Table walker requests started/completed, data/inst
system.cpu.dtb.walker.walkRequestOrigin_Completed::Data            0                       # Table walker requests started/completed, data/inst
system.cpu.dtb.walker.walkRequestOrigin_Completed::Inst            0                       # Table walker requests started/completed, data/inst
system.cpu.dtb.walker.walkRequestOrigin_Completed::total            0                       # Table walker requests started/completed, data/inst
system.cpu.dtb.walker.walkRequestOrigin::total            0                       # Table walker requests started/completed, data/inst
system.cpu.dtb.walker.walks                         0                       # Table walker walks requested
system.cpu.dtb.write_accesses                       0                       # DTB write accesses
system.cpu.dtb.write_hits                           0                       # DTB write hits
system.cpu.dtb.write_misses                         0                       # DTB write misses
system.cpu.fetch2.amo_instructions                  0                       # Number of memory atomic instructions successfully decoded
system.cpu.fetch2.fp_instructions                   0                       # Number of floating point instructions successfully decoded
system.cpu.fetch2.int_instructions           42610581                       # Number of integer instructions successfully decoded
system.cpu.fetch2.load_instructions          43403308                       # Number of memory load instructions successfully decoded
system.cpu.fetch2.store_instructions         11001629                       # Number of memory store instructions successfully decoded
system.cpu.fetch2.vec_instructions                  0                       # Number of SIMD instructions successfully decoded
system.cpu.idleCycles                        32373824                       # Total number of cycles that the object has spent stopped
system.cpu.ipc                               0.606511                       # IPC: instructions per cycle
system.cpu.itb.accesses                             0                       # DTB accesses
system.cpu.itb.align_faults                         0                       # Number of TLB faults due to alignment restrictions
system.cpu.itb.domain_faults                        0                       # Number of TLB faults due to domain restrictions
system.cpu.itb.flush_entries                        0                       # Number of entries that have been flushed from TLB
system.cpu.itb.flush_tlb                            0                       # Number of times complete TLB was flushed
system.cpu.itb.flush_tlb_asid                       0                       # Number of times TLB was flushed by ASID
system.cpu.itb.flush_tlb_mva                        0                       # Number of times TLB was flushed by MVA
system.cpu.itb.flush_tlb_mva_asid                   0                       # Number of times TLB was flushed by MVA & ASID
system.cpu.itb.hits                                 0                       # DTB hits
system.cpu.itb.inst_accesses                        0                       # ITB inst accesses
system.cpu.itb.inst_hits                            0                       # ITB inst hits
system.cpu.itb.inst_misses                          0                       # ITB inst misses
system.cpu.itb.misses                               0                       # DTB misses
system.cpu.itb.perms_faults                         0                       # Number of TLB faults due to permissions restrictions
system.cpu.itb.prefetch_faults                      0                       # Number of TLB faults due to prefetch
system.cpu.itb.read_accesses                        0                       # DTB read accesses
system.cpu.itb.read_hits                            0                       # DTB read hits
system.cpu.itb.read_misses                          0                       # DTB read misses
system.cpu.itb.stage2_mmu.stage2_tlb.accesses            0                       # DTB accesses
system.cpu.itb.stage2_mmu.stage2_tlb.align_faults            0                       # Number of TLB faults due to alignment restrictions
system.cpu.itb.stage2_mmu.stage2_tlb.domain_faults            0                       # Number of TLB faults due to domain restrictions
system.cpu.itb.stage2_mmu.stage2_tlb.flush_entries            0                       # Number of entries that have been flushed from TLB
system.cpu.itb.stage2_mmu.stage2_tlb.flush_tlb            0                       # Number of times complete TLB was flushed
system.cpu.itb.stage2_mmu.stage2_tlb.flush_tlb_asid            0                       # Number of times TLB was flushed by ASID
system.cpu.itb.stage2_mmu.stage2_tlb.flush_tlb_mva            0                       # Number of times TLB was flushed by MVA
system.cpu.itb.stage2_mmu.stage2_tlb.flush_tlb_mva_asid            0                       # Number of times TLB was flushed by MVA & ASID
system.cpu.itb.stage2_mmu.stage2_tlb.hits            0                       # DTB hits
system.cpu.itb.stage2_mmu.stage2_tlb.inst_accesses            0                       # ITB inst accesses
system.cpu.itb.stage2_mmu.stage2_tlb.inst_hits            0                       # ITB inst hits
system.cpu.itb.stage2_mmu.stage2_tlb.inst_misses            0                       # ITB inst misses
system.cpu.itb.stage2_mmu.stage2_tlb.misses            0                       # DTB misses
system.cpu.itb.stage2_mmu.stage2_tlb.perms_faults            0                       # Number of TLB faults due to permissions restrictions
system.cpu.itb.stage2_mmu.stage2_tlb.prefetch_faults            0                       # Number of TLB faults due to prefetch
system.cpu.itb.stage2_mmu.stage2_tlb.read_accesses            0                       # DTB read accesses
system.cpu.itb.stage2_mmu.stage2_tlb.read_hits            0                       # DTB read hits
system.cpu.itb.stage2_mmu.stage2_tlb.read_misses            0                       # DTB read misses
system.cpu.itb.stage2_mmu.stage2_tlb.walker.walkRequestOrigin_Requested::Data            0                       # Table walker requests started/completed, data/inst
system.cpu.itb.stage2_mmu.stage2_tlb.walker.walkRequestOrigin_Requested::Inst            0                       # Table walker requests started/completed, data/inst
system.cpu.itb.stage2_mmu.stage2_tlb.walker.walkRequestOrigin_Requested::total            0                       # Table walker requests started/completed, data/inst
system.cpu.itb.stage2_mmu.stage2_tlb.walker.walkRequestOrigin_Completed::Data            0                       # Table walker requests started/completed, data/inst
system.cpu.itb.stage2_mmu.stage2_tlb.walker.walkRequestOrigin_Completed::Inst            0                       # Table walker requests started/completed, data/inst
system.cpu.itb.stage2_mmu.stage2_tlb.walker.walkRequestOrigin_Completed::total            0                       # Table walker requests started/completed, data/inst
system.cpu.itb.stage2_mmu.stage2_tlb.walker.walkRequestOrigin::total            0                       # Table walker requests started/completed, data/inst
system.cpu.itb.stage2_mmu.stage2_tlb.walker.walks            0                       # Table walker walks requested
system.cpu.itb.stage2_mmu.stage2_tlb.write_accesses            0                       # DTB write accesses
system.cpu.itb.stage2_mmu.stage2_tlb.write_hits            0                       # DTB write hits
system.cpu.itb.stage2_mmu.stage2_tlb.write_misses            0                       # DTB write misses
system.cpu.itb.walker.walkRequestOrigin_Requested::Data            0                       # Table walker requests started/completed, data/inst
system.cpu.itb.walker.walkRequestOrigin_Requested::Inst            0                       # Table walker requests started/completed, data/inst
system.cpu.itb.walker.walkRequestOrigin_Requested::total            0                       # Table walker requests started/completed, data/inst
system.cpu.itb.walker.walkRequestOrigin_Completed::Data            0                       # Table walker requests started/completed, data/inst
system.cpu.itb.walker.walkRequestOrigin_Completed::Inst            0                       # Table walker requests started/completed, data/inst
system.cpu.itb.walker.walkRequestOrigin_Completed::total            0                       # Table walker requests started/completed, data/inst
system.cpu.itb.walker.walkRequestOrigin::total            0                       # Table walker requests started/completed, data/inst
system.cpu.itb.walker.walks                         0                       # Table walker walks requested
system.cpu.itb.write_accesses                       0                       # DTB write accesses
system.cpu.itb.write_hits                           0                       # DTB write hits
system.cpu.itb.write_misses                         0                       # DTB write misses
system.cpu.numCycles                        164877378                       # number of cpu cycles simulated
system.cpu.numFetchSuspends                         0                       # Number of times Execute suspended instruction fetching
system.cpu.numWorkItemsCompleted                    0                       # number of work items this cpu completed
system.cpu.numWorkItemsStarted                      0                       # number of work items this cpu started
system.cpu.op_class_0::No_OpClass                   0      0.00%      0.00% # Class of committed instruction
system.cpu.op_class_0::IntAlu                46531438     46.44%     46.44% # Class of committed instruction
system.cpu.op_class_0::IntMult                  20720      0.02%     46.46% # Class of committed instruction
system.cpu.op_class_0::IntDiv                       0      0.00%     46.46% # Class of committed instruction
system.cpu.op_class_0::FloatAdd                     0      0.00%     46.46% # Class of committed instruction
system.cpu.op_class_0::FloatCmp                     0      0.00%     46.46% # Class of committed instruction
system.cpu.op_class_0::FloatCvt                     0      0.00%     46.46% # Class of committed instruction
system.cpu.op_class_0::FloatMult                    0      0.00%     46.46% # Class of committed instruction
system.cpu.op_class_0::FloatMultAcc                 0      0.00%     46.46% # Class of committed instruction
system.cpu.op_class_0::FloatDiv                     0      0.00%     46.46% # Class of committed instruction
system.cpu.op_class_0::FloatMisc                    0      0.00%     46.46% # Class of committed instruction
system.cpu.op_class_0::FloatSqrt                    0      0.00%     46.46% # Class of committed instruction
system.cpu.op_class_0::SimdAdd                      0      0.00%     46.46% # Class of committed instruction
system.cpu.op_class_0::SimdAddAcc                   0      0.00%     46.46% # Class of committed instruction
system.cpu.op_class_0::SimdAlu                      0      0.00%     46.46% # Class of committed instruction
system.cpu.op_class_0::SimdCmp                      0      0.00%     46.46% # Class of committed instruction
system.cpu.op_class_0::SimdCvt                      0      0.00%     46.46% # Class of committed instruction
system.cpu.op_class_0::SimdMisc                     0      0.00%     46.46% # Class of committed instruction
system.cpu.op_class_0::SimdMult                     0      0.00%     46.46% # Class of committed instruction
system.cpu.op_class_0::SimdMultAcc                  0      0.00%     46.46% # Class of committed instruction
system.cpu.op_class_0::SimdShift                    0      0.00%     46.46% # Class of committed instruction
system.cpu.op_class_0::SimdShiftAcc                 0      0.00%     46.46% # Class of committed instruction
system.cpu.op_class_0::SimdDiv                      0      0.00%     46.46% # Class of committed instruction
system.cpu.op_class_0::SimdSqrt                     0      0.00%     46.46% # Class of committed instruction
system.cpu.op_class_0::SimdFloatAdd                 0      0.00%     46.46% # Class of committed instruction
system.cpu.op_class_0::SimdFloatAlu                 0      0.00%     46.46% # Class of committed instruction
system.cpu.op_class_0::SimdFloatCmp                 0      0.00%     46.46% # Class of committed instruction
system.cpu.op_class_0::SimdFloatCvt                 0      0.00%     46.46% # Class of committed instruction
system.cpu.op_class_0::SimdFloatDiv                 0      0.00%     46.46% # Class of committed instruction
system.cpu.op_class_0::SimdFloatMisc               18      0.00%     46.46% # Class of committed instruction
system.cpu.op_class_0::SimdFloatMult                0      0.00%     46.46% # Class of committed instruction
system.cpu.op_class_0::SimdFloatMultAcc             0      0.00%     46.46% # Class of committed instruction
system.cpu.op_class_0::SimdFloatSqrt                0      0.00%     46.46% # Class of committed instruction
system.cpu.op_class_0::SimdReduceAdd                0      0.00%     46.46% # Class of committed instruction
system.cpu.op_class_0::SimdReduceAlu                0      0.00%     46.46% # Class of committed instruction
system.cpu.op_class_0::SimdReduceCmp                0      0.00%     46.46% # Class of committed instruction
system.cpu.op_class_0::SimdFloatReduceAdd            0      0.00%     46.46% # Class of committed instruction
system.cpu.op_class_0::SimdFloatReduceCmp            0      0.00%     46.46% # Class of committed instruction
system.cpu.op_class_0::SimdAes                      0      0.00%     46.46% # Class of committed instruction
system.cpu.op_class_0::SimdAesMix                   0      0.00%     46.46% # Class of committed instruction
system.cpu.op_class_0::SimdSha1Hash                 0      0.00%     46.46% # Class of committed instruction
system.cpu.op_class_0::SimdSha1Hash2                0      0.00%     46.46% # Class of committed instruction
system.cpu.op_class_0::SimdSha256Hash               0      0.00%     46.46% # Class of committed instruction
system.cpu.op_class_0::SimdSha256Hash2              0      0.00%     46.46% # Class of committed instruction
system.cpu.op_class_0::SimdShaSigma2                0      0.00%     46.46% # Class of committed instruction
system.cpu.op_class_0::SimdShaSigma3                0      0.00%     46.46% # Class of committed instruction
system.cpu.op_class_0::SimdPredAlu                  0      0.00%     46.46% # Class of committed instruction
system.cpu.op_class_0::MemRead               42693580     42.61%     89.07% # Class of committed instruction
system.cpu.op_class_0::MemWrite              10950614     10.93%    100.00% # Class of committed instruction
system.cpu.op_class_0::FloatMemRead                 0      0.00%    100.00% # Class of committed instruction
system.cpu.op_class_0::FloatMemWrite                0      0.00%    100.00% # Class of committed instruction
system.cpu.op_class_0::IprAccess                    0      0.00%    100.00% # Class of committed instruction
system.cpu.op_class_0::InstPrefetch                 0      0.00%    100.00% # Class of committed instruction
system.cpu.op_class_0::total                100196370                       # Class of committed instruction
system.cpu.tickCycles                       132503554                       # Number of cycles that the object actually ticked
system.cpu.workload.numSyscalls                    84                       # Number of system calls
system.membus.snoop_filter.hit_multi_requests            0                       # Number of requests hitting in the snoop filter with multiple (>1) holders of the requested data.
system.membus.snoop_filter.hit_multi_snoops            0                       # Number of snoops hitting in the snoop filter with multiple (>1) holders of the requested data.
system.membus.snoop_filter.hit_single_requests        76392                       # Number of requests hitting in the snoop filter with a single holder of the requested data.
system.membus.snoop_filter.hit_single_snoops            0                       # Number of snoops hitting in the snoop filter with a single holder of the requested data.
system.membus.snoop_filter.tot_requests        185711                       # Total number of requests made to the snoop filter.
system.membus.snoop_filter.tot_snoops               0                       # Total number of snoops made to the snoop filter.
system.tol2bus.snoop_filter.hit_multi_requests          168                       # Number of requests hitting in the snoop filter with multiple (>1) holders of the requested data.
system.tol2bus.snoop_filter.hit_multi_snoops            0                       # Number of snoops hitting in the snoop filter with multiple (>1) holders of the requested data.
system.tol2bus.snoop_filter.hit_single_requests       708559                       # Number of requests hitting in the snoop filter with a single holder of the requested data.
system.tol2bus.snoop_filter.hit_single_snoops          282                       # Number of snoops hitting in the snoop filter with a single holder of the requested data.
system.tol2bus.snoop_filter.tot_requests      1417868                       # Total number of requests made to the snoop filter.
system.tol2bus.snoop_filter.tot_snoops            282                       # Total number of snoops made to the snoop filter.
system.membus.pwrStateResidencyTicks::UNDEFINED  82438689000                       # Cumulative time (in ticks) in various power states
system.membus.trans_dist::ReadResp              30119                       # Transaction distribution
system.membus.trans_dist::WritebackDirty        49645                       # Transaction distribution
system.membus.trans_dist::CleanEvict            26737                       # Transaction distribution
system.membus.trans_dist::ReadExReq             79210                       # Transaction distribution
system.membus.trans_dist::ReadExResp            79210                       # Transaction distribution
system.membus.trans_dist::ReadSharedReq         30119                       # Transaction distribution
system.membus.pkt_count_system.l2.mem_side::system.mem_ctrls.port       295040                       # Packet count per connected master and slave (bytes)
system.membus.pkt_count::total                 295040                       # Packet count per connected master and slave (bytes)
system.membus.pkt_size_system.l2.mem_side::system.mem_ctrls.port     20348672                       # Cumulative packet size per connected master and slave (bytes)
system.membus.pkt_size::total                20348672                       # Cumulative packet size per connected master and slave (bytes)
system.membus.snoops                                0                       # Total snoops (count)
system.membus.snoopTraffic                          0                       # Total snoop traffic (bytes)
system.membus.snoop_fanout::samples            109329                       # Request fanout histogram
system.membus.snoop_fanout::mean                    0                       # Request fanout histogram
system.membus.snoop_fanout::stdev                   0                       # Request fanout histogram
system.membus.snoop_fanout::underflows              0      0.00%      0.00% # Request fanout histogram
system.membus.snoop_fanout::0                  109329    100.00%    100.00% # Request fanout histogram
system.membus.snoop_fanout::1                       0      0.00%    100.00% # Request fanout histogram
system.membus.snoop_fanout::overflows               0      0.00%    100.00% # Request fanout histogram
system.membus.snoop_fanout::min_value               0                       # Request fanout histogram
system.membus.snoop_fanout::max_value               0                       # Request fanout histogram
system.membus.snoop_fanout::total              109329                       # Request fanout histogram
system.membus.respLayer1.occupancy         1020330250                       # Layer occupancy (ticks)
system.membus.respLayer1.utilization              1.2                       # Layer utilization (%)
system.membus.reqLayer0.occupancy           608056000                       # Layer occupancy (ticks)
system.membus.reqLayer0.utilization               0.7                       # Layer utilization (%)
system.tol2bus.pwrStateResidencyTicks::UNDEFINED  82438689000                       # Cumulative time (in ticks) in various power states
system.tol2bus.trans_dist::ReadResp            420054                       # Transaction distribution
system.tol2bus.trans_dist::WritebackDirty       725089                       # Transaction distribution
system.tol2bus.trans_dist::WritebackClean          304                       # Transaction distribution
system.tol2bus.trans_dist::CleanEvict           59830                       # Transaction distribution
system.tol2bus.trans_dist::ReadExReq           289255                       # Transaction distribution
system.tol2bus.trans_dist::ReadExResp          289255                       # Transaction distribution
system.tol2bus.trans_dist::ReadCleanReq           542                       # Transaction distribution
system.tol2bus.trans_dist::ReadSharedReq       419512                       # Transaction distribution
system.tol2bus.pkt_count_system.cpu.icache.mem_side::system.l2.cpu_side         1388                       # Packet count per connected master and slave (bytes)
system.tol2bus.pkt_count_system.cpu.dcache.mem_side::system.l2.cpu_side      2125789                       # Packet count per connected master and slave (bytes)
system.tol2bus.pkt_count::total               2127177                       # Packet count per connected master and slave (bytes)
system.tol2bus.pkt_size_system.cpu.icache.mem_side::system.l2.cpu_side       108288                       # Cumulative packet size per connected master and slave (bytes)
system.tol2bus.pkt_size_system.cpu.dcache.mem_side::system.l2.cpu_side    177179008                       # Cumulative packet size per connected master and slave (bytes)
system.tol2bus.pkt_size::total              177287296                       # Cumulative packet size per connected master and slave (bytes)
system.tol2bus.snoops                           76664                       # Total snoops (count)
system.tol2bus.snoopTraffic                   6354560                       # Total snoop traffic (bytes)
system.tol2bus.snoop_fanout::samples           785973                       # Request fanout histogram
system.tol2bus.snoop_fanout::mean            0.000573                       # Request fanout histogram
system.tol2bus.snoop_fanout::stdev           0.023921                       # Request fanout histogram
system.tol2bus.snoop_fanout::underflows             0      0.00%      0.00% # Request fanout histogram
system.tol2bus.snoop_fanout::0                 785523     99.94%     99.94% # Request fanout histogram
system.tol2bus.snoop_fanout::1                    450      0.06%    100.00% # Request fanout histogram
system.tol2bus.snoop_fanout::2                      0      0.00%    100.00% # Request fanout histogram
system.tol2bus.snoop_fanout::overflows              0      0.00%    100.00% # Request fanout histogram
system.tol2bus.snoop_fanout::min_value              0                       # Request fanout histogram
system.tol2bus.snoop_fanout::max_value              1                       # Request fanout histogram
system.tol2bus.snoop_fanout::total             785973                       # Request fanout histogram
system.tol2bus.reqLayer0.occupancy         2060430000                       # Layer occupancy (ticks)
system.tol2bus.reqLayer0.utilization              2.5                       # Layer utilization (%)
system.tol2bus.respLayer1.occupancy        1771919995                       # Layer occupancy (ticks)
system.tol2bus.respLayer1.utilization             2.1                       # Layer utilization (%)
system.tol2bus.respLayer0.occupancy           1355000                       # Layer occupancy (ticks)
system.tol2bus.respLayer0.utilization             0.0                       # Layer utilization (%)
system.voltage_domain.voltage                       1                       # Voltage in Volts
system.clk_domain.clock                          1000                       # Clock period in ticks
system.l2.pwrStateResidencyTicks::UNDEFINED  82438689000                       # Cumulative time (in ticks) in various power states
system.l2.demand_hits::.cpu.inst                  123                       # number of demand (read+write) hits
system.l2.demand_hits::.cpu.data               599852                       # number of demand (read+write) hits
system.l2.demand_hits::total                   599975                       # number of demand (read+write) hits
system.l2.overall_hits::.cpu.inst                 123                       # number of overall hits
system.l2.overall_hits::.cpu.data              599852                       # number of overall hits
system.l2.overall_hits::total                  599975                       # number of overall hits
system.l2.demand_misses::.cpu.inst                419                       # number of demand (read+write) misses
system.l2.demand_misses::.cpu.data             108915                       # number of demand (read+write) misses
system.l2.demand_misses::total                 109334                       # number of demand (read+write) misses
system.l2.overall_misses::.cpu.inst               419                       # number of overall misses
system.l2.overall_misses::.cpu.data            108915                       # number of overall misses
system.l2.overall_misses::total                109334                       # number of overall misses
system.l2.demand_miss_latency::.cpu.inst     36044500                       # number of demand (read+write) miss cycles
system.l2.demand_miss_latency::.cpu.data   9778377500                       # number of demand (read+write) miss cycles
system.l2.demand_miss_latency::total       9814422000                       # number of demand (read+write) miss cycles
system.l2.overall_miss_latency::.cpu.inst     36044500                       # number of overall miss cycles
system.l2.overall_miss_latency::.cpu.data   9778377500                       # number of overall miss cycles
system.l2.overall_miss_latency::total      9814422000                       # number of overall miss cycles
system.l2.demand_accesses::.cpu.inst              542                       # number of demand (read+write) accesses
system.l2.demand_accesses::.cpu.data           708767                       # number of demand (read+write) accesses
system.l2.demand_accesses::total               709309                       # number of demand (read+write) accesses
system.l2.overall_accesses::.cpu.inst             542                       # number of overall (read+write) accesses
system.l2.overall_accesses::.cpu.data          708767                       # number of overall (read+write) accesses
system.l2.overall_accesses::total              709309                       # number of overall (read+write) accesses
system.l2.demand_miss_rate::.cpu.inst        0.773063                       # miss rate for demand accesses
system.l2.demand_miss_rate::.cpu.data        0.153668                       # miss rate for demand accesses
system.l2.demand_miss_rate::total            0.154142                       # miss rate for demand accesses
system.l2.overall_miss_rate::.cpu.inst       0.773063                       # miss rate for overall accesses
system.l2.overall_miss_rate::.cpu.data       0.153668                       # miss rate for overall accesses
system.l2.overall_miss_rate::total           0.154142                       # miss rate for overall accesses
system.l2.demand_avg_miss_latency::.cpu.inst 86025.059666                       # average overall miss latency
system.l2.demand_avg_miss_latency::.cpu.data 89779.897168                       # average overall miss latency
system.l2.demand_avg_miss_latency::total 89765.507527                       # average overall miss latency
system.l2.overall_avg_miss_latency::.cpu.inst 86025.059666                       # average overall miss latency
system.l2.overall_avg_miss_latency::.cpu.data 89779.897168                       # average overall miss latency
system.l2.overall_avg_miss_latency::total 89765.507527                       # average overall miss latency
system.l2.blocked_cycles::no_mshrs                  0                       # number of cycles access was blocked
system.l2.blocked_cycles::no_targets                0                       # number of cycles access was blocked
system.l2.blocked::no_mshrs                         0                       # number of cycles access was blocked
system.l2.blocked::no_targets                       0                       # number of cycles access was blocked
system.l2.avg_blocked_cycles::no_mshrs            nan                       # average number of cycles each access was blocked
system.l2.avg_blocked_cycles::no_targets          nan                       # average number of cycles each access was blocked
system.l2.writebacks::.writebacks               49645                       # number of writebacks
system.l2.writebacks::total                     49645                       # number of writebacks
system.l2.demand_mshr_hits::.cpu.data               5                       # number of demand (read+write) MSHR hits
system.l2.demand_mshr_hits::total                   5                       # number of demand (read+write) MSHR hits
system.l2.overall_mshr_hits::.cpu.data              5                       # number of overall MSHR hits
system.l2.overall_mshr_hits::total                  5                       # number of overall MSHR hits
system.l2.demand_mshr_misses::.cpu.inst           419                       # number of demand (read+write) MSHR misses
system.l2.demand_mshr_misses::.cpu.data        108910                       # number of demand (read+write) MSHR misses
system.l2.demand_mshr_misses::total            109329                       # number of demand (read+write) MSHR misses
system.l2.overall_mshr_misses::.cpu.inst          419                       # number of overall MSHR misses
system.l2.overall_mshr_misses::.cpu.data       108910                       # number of overall MSHR misses
system.l2.overall_mshr_misses::total           109329                       # number of overall MSHR misses
system.l2.demand_mshr_miss_latency::.cpu.inst     31854500                       # number of demand (read+write) MSHR miss cycles
system.l2.demand_mshr_miss_latency::.cpu.data   8688928000                       # number of demand (read+write) MSHR miss cycles
system.l2.demand_mshr_miss_latency::total   8720782500                       # number of demand (read+write) MSHR miss cycles
system.l2.overall_mshr_miss_latency::.cpu.inst     31854500                       # number of overall MSHR miss cycles
system.l2.overall_mshr_miss_latency::.cpu.data   8688928000                       # number of overall MSHR miss cycles
system.l2.overall_mshr_miss_latency::total   8720782500                       # number of overall MSHR miss cycles
system.l2.demand_mshr_miss_rate::.cpu.inst     0.773063                       # mshr miss rate for demand accesses
system.l2.demand_mshr_miss_rate::.cpu.data     0.153661                       # mshr miss rate for demand accesses
system.l2.demand_mshr_miss_rate::total       0.154135                       # mshr miss rate for demand accesses
system.l2.overall_mshr_miss_rate::.cpu.inst     0.773063                       # mshr miss rate for overall accesses
system.l2.overall_mshr_miss_rate::.cpu.data     0.153661                       # mshr miss rate for overall accesses
system.l2.overall_mshr_miss_rate::total      0.154135                       # mshr miss rate for overall accesses
system.l2.demand_avg_mshr_miss_latency::.cpu.inst 76025.059666                       # average overall mshr miss latency
system.l2.demand_avg_mshr_miss_latency::.cpu.data 79780.809843                       # average overall mshr miss latency
system.l2.demand_avg_mshr_miss_latency::total 79766.416047                       # average overall mshr miss latency
system.l2.overall_avg_mshr_miss_latency::.cpu.inst 76025.059666                       # average overall mshr miss latency
system.l2.overall_avg_mshr_miss_latency::.cpu.data 79780.809843                       # average overall mshr miss latency
system.l2.overall_avg_mshr_miss_latency::total 79766.416047                       # average overall mshr miss latency
system.l2.replacements                          76664                       # number of replacements
system.l2.WritebackDirty_hits::.writebacks       675444                       # number of WritebackDirty hits
system.l2.WritebackDirty_hits::total           675444                       # number of WritebackDirty hits
system.l2.WritebackDirty_accesses::.writebacks       675444                       # number of WritebackDirty accesses(hits+misses)
system.l2.WritebackDirty_accesses::total       675444                       # number of WritebackDirty accesses(hits+misses)
system.l2.WritebackClean_hits::.writebacks          291                       # number of WritebackClean hits
system.l2.WritebackClean_hits::total              291                       # number of WritebackClean hits
system.l2.WritebackClean_accesses::.writebacks          291                       # number of WritebackClean accesses(hits+misses)
system.l2.WritebackClean_accesses::total          291                       # number of WritebackClean accesses(hits+misses)
system.l2.ReadExReq_hits::.cpu.data            210045                       # number of ReadExReq hits
system.l2.ReadExReq_hits::total                210045                       # number of ReadExReq hits
system.l2.ReadExReq_misses::.cpu.data           79210                       # number of ReadExReq misses
system.l2.ReadExReq_misses::total               79210                       # number of ReadExReq misses
system.l2.ReadExReq_miss_latency::.cpu.data   7238457500                       # number of ReadExReq miss cycles
system.l2.ReadExReq_miss_latency::total    7238457500                       # number of ReadExReq miss cycles
system.l2.ReadExReq_accesses::.cpu.data        289255                       # number of ReadExReq accesses(hits+misses)
system.l2.ReadExReq_accesses::total            289255                       # number of ReadExReq accesses(hits+misses)
system.l2.ReadExReq_miss_rate::.cpu.data     0.273841                       # miss rate for ReadExReq accesses
system.l2.ReadExReq_miss_rate::total         0.273841                       # miss rate for ReadExReq accesses
system.l2.ReadExReq_avg_miss_latency::.cpu.data 91383.127130                       # average ReadExReq miss latency
system.l2.ReadExReq_avg_miss_latency::total 91383.127130                       # average ReadExReq miss latency
system.l2.ReadExReq_mshr_misses::.cpu.data        79210                       # number of ReadExReq MSHR misses
system.l2.ReadExReq_mshr_misses::total          79210                       # number of ReadExReq MSHR misses
system.l2.ReadExReq_mshr_miss_latency::.cpu.data   6446357500                       # number of ReadExReq MSHR miss cycles
system.l2.ReadExReq_mshr_miss_latency::total   6446357500                       # number of ReadExReq MSHR miss cycles
system.l2.ReadExReq_mshr_miss_rate::.cpu.data     0.273841                       # mshr miss rate for ReadExReq accesses
system.l2.ReadExReq_mshr_miss_rate::total     0.273841                       # mshr miss rate for ReadExReq accesses
system.l2.ReadExReq_avg_mshr_miss_latency::.cpu.data 81383.127130                       # average ReadExReq mshr miss latency
system.l2.ReadExReq_avg_mshr_miss_latency::total 81383.127130                       # average ReadExReq mshr miss latency
system.l2.ReadCleanReq_hits::.cpu.inst            123                       # number of ReadCleanReq hits
system.l2.ReadCleanReq_hits::total                123                       # number of ReadCleanReq hits
system.l2.ReadCleanReq_misses::.cpu.inst          419                       # number of ReadCleanReq misses
system.l2.ReadCleanReq_misses::total              419                       # number of ReadCleanReq misses
system.l2.ReadCleanReq_miss_latency::.cpu.inst     36044500                       # number of ReadCleanReq miss cycles
system.l2.ReadCleanReq_miss_latency::total     36044500                       # number of ReadCleanReq miss cycles
system.l2.ReadCleanReq_accesses::.cpu.inst          542                       # number of ReadCleanReq accesses(hits+misses)
system.l2.ReadCleanReq_accesses::total            542                       # number of ReadCleanReq accesses(hits+misses)
system.l2.ReadCleanReq_miss_rate::.cpu.inst     0.773063                       # miss rate for ReadCleanReq accesses
system.l2.ReadCleanReq_miss_rate::total      0.773063                       # miss rate for ReadCleanReq accesses
system.l2.ReadCleanReq_avg_miss_latency::.cpu.inst 86025.059666                       # average ReadCleanReq miss latency
system.l2.ReadCleanReq_avg_miss_latency::total 86025.059666                       # average ReadCleanReq miss latency
system.l2.ReadCleanReq_mshr_misses::.cpu.inst          419                       # number of ReadCleanReq MSHR misses
system.l2.ReadCleanReq_mshr_misses::total          419                       # number of ReadCleanReq MSHR misses
system.l2.ReadCleanReq_mshr_miss_latency::.cpu.inst     31854500                       # number of ReadCleanReq MSHR miss cycles
system.l2.ReadCleanReq_mshr_miss_latency::total     31854500                       # number of ReadCleanReq MSHR miss cycles
system.l2.ReadCleanReq_mshr_miss_rate::.cpu.inst     0.773063                       # mshr miss rate for ReadCleanReq accesses
system.l2.ReadCleanReq_mshr_miss_rate::total     0.773063                       # mshr miss rate for ReadCleanReq accesses
system.l2.ReadCleanReq_avg_mshr_miss_latency::.cpu.inst 76025.059666                       # average ReadCleanReq mshr miss latency
system.l2.ReadCleanReq_avg_mshr_miss_latency::total 76025.059666                       # average ReadCleanReq mshr miss latency
system.l2.ReadSharedReq_hits::.cpu.data        389807                       # number of ReadSharedReq hits
system.l2.ReadSharedReq_hits::total            389807                       # number of ReadSharedReq hits
system.l2.ReadSharedReq_misses::.cpu.data        29705                       # number of ReadSharedReq misses
system.l2.ReadSharedReq_misses::total           29705                       # number of ReadSharedReq misses
system.l2.ReadSharedReq_miss_latency::.cpu.data   2539920000                       # number of ReadSharedReq miss cycles
system.l2.ReadSharedReq_miss_latency::total   2539920000                       # number of ReadSharedReq miss cycles
system.l2.ReadSharedReq_accesses::.cpu.data       419512                       # number of ReadSharedReq accesses(hits+misses)
system.l2.ReadSharedReq_accesses::total        419512                       # number of ReadSharedReq accesses(hits+misses)
system.l2.ReadSharedReq_miss_rate::.cpu.data     0.070808                       # miss rate for ReadSharedReq accesses
system.l2.ReadSharedReq_miss_rate::total     0.070808                       # miss rate for ReadSharedReq accesses
system.l2.ReadSharedReq_avg_miss_latency::.cpu.data 85504.797172                       # average ReadSharedReq miss latency
system.l2.ReadSharedReq_avg_miss_latency::total 85504.797172                       # average ReadSharedReq miss latency
system.l2.ReadSharedReq_mshr_hits::.cpu.data            5                       # number of ReadSharedReq MSHR hits
system.l2.ReadSharedReq_mshr_hits::total            5                       # number of ReadSharedReq MSHR hits
system.l2.ReadSharedReq_mshr_misses::.cpu.data        29700                       # number of ReadSharedReq MSHR misses
system.l2.ReadSharedReq_mshr_misses::total        29700                       # number of ReadSharedReq MSHR misses
system.l2.ReadSharedReq_mshr_miss_latency::.cpu.data   2242570500                       # number of ReadSharedReq MSHR miss cycles
system.l2.ReadSharedReq_mshr_miss_latency::total   2242570500                       # number of ReadSharedReq MSHR miss cycles
system.l2.ReadSharedReq_mshr_miss_rate::.cpu.data     0.070797                       # mshr miss rate for ReadSharedReq accesses
system.l2.ReadSharedReq_mshr_miss_rate::total     0.070797                       # mshr miss rate for ReadSharedReq accesses
system.l2.ReadSharedReq_avg_mshr_miss_latency::.cpu.data 75507.424242                       # average ReadSharedReq mshr miss latency
system.l2.ReadSharedReq_avg_mshr_miss_latency::total 75507.424242                       # average ReadSharedReq mshr miss latency
system.l2.tags.pwrStateResidencyTicks::UNDEFINED  82438689000                       # Cumulative time (in ticks) in various power states
system.l2.tags.tagsinuse                 31605.367171                       # Cycle average of tags in use
system.l2.tags.total_refs                     1417695                       # Total number of references to valid blocks.
system.l2.tags.sampled_refs                    109432                       # Sample count of references to valid blocks.
system.l2.tags.avg_refs                     12.955031                       # Average number of references to valid blocks.
system.l2.tags.warmup_cycle                     82000                       # Cycle when the warmup percentage was hit.
system.l2.tags.occ_blocks::.writebacks      53.415431                       # Average occupied blocks per requestor
system.l2.tags.occ_blocks::.cpu.inst        74.737256                       # Average occupied blocks per requestor
system.l2.tags.occ_blocks::.cpu.data     31477.214484                       # Average occupied blocks per requestor
system.l2.tags.occ_percent::.writebacks      0.001630                       # Average percentage of cache occupancy
system.l2.tags.occ_percent::.cpu.inst        0.002281                       # Average percentage of cache occupancy
system.l2.tags.occ_percent::.cpu.data        0.960608                       # Average percentage of cache occupancy
system.l2.tags.occ_percent::total            0.964519                       # Average percentage of cache occupancy
system.l2.tags.occ_task_id_blocks::1024         32768                       # Occupied blocks per task id
system.l2.tags.age_task_id_blocks_1024::2            3                       # Occupied blocks per task id
system.l2.tags.age_task_id_blocks_1024::3         2335                       # Occupied blocks per task id
system.l2.tags.age_task_id_blocks_1024::4        30430                       # Occupied blocks per task id
system.l2.tags.occ_task_id_percent::1024            1                       # Percentage of cache occupancy per task id
system.l2.tags.tag_accesses                  11451032                       # Number of tag accesses
system.l2.tags.data_accesses                 11451032                       # Number of data accesses
system.cpu_voltage_domain.voltage                   1                       # Voltage in Volts
system.mem_ctrls.pwrStateResidencyTicks::UNDEFINED  82438689000                       # Cumulative time (in ticks) in various power states
system.mem_ctrls.bytes_read::.cpu.inst          53632                       # Number of bytes read from this memory
system.mem_ctrls.bytes_read::.cpu.data       13940480                       # Number of bytes read from this memory
system.mem_ctrls.bytes_read::total           13994112                       # Number of bytes read from this memory
system.mem_ctrls.bytes_inst_read::.cpu.inst        53632                       # Number of instructions bytes read from this memory
system.mem_ctrls.bytes_inst_read::total         53632                       # Number of instructions bytes read from this memory
system.mem_ctrls.bytes_written::.writebacks      6354560                       # Number of bytes written to this memory
system.mem_ctrls.bytes_written::total         6354560                       # Number of bytes written to this memory
system.mem_ctrls.num_reads::.cpu.inst             419                       # Number of read requests responded to by this memory
system.mem_ctrls.num_reads::.cpu.data          108910                       # Number of read requests responded to by this memory
system.mem_ctrls.num_reads::total              109329                       # Number of read requests responded to by this memory
system.mem_ctrls.num_writes::.writebacks        49645                       # Number of write requests responded to by this memory
system.mem_ctrls.num_writes::total              49645                       # Number of write requests responded to by this memory
system.mem_ctrls.bw_read::.cpu.inst            650568                       # Total read bandwidth from this memory (bytes/s)
system.mem_ctrls.bw_read::.cpu.data         169101185                       # Total read bandwidth from this memory (bytes/s)
system.mem_ctrls.bw_read::total             169751753                       # Total read bandwidth from this memory (bytes/s)
system.mem_ctrls.bw_inst_read::.cpu.inst       650568                       # Instruction read bandwidth from this memory (bytes/s)
system.mem_ctrls.bw_inst_read::total           650568                       # Instruction read bandwidth from this memory (bytes/s)
system.mem_ctrls.bw_write::.writebacks       77082254                       # Write bandwidth from this memory (bytes/s)
system.mem_ctrls.bw_write::total             77082254                       # Write bandwidth from this memory (bytes/s)
system.mem_ctrls.bw_total::.writebacks       77082254                       # Total bandwidth to/from this memory (bytes/s)
system.mem_ctrls.bw_total::.cpu.inst           650568                       # Total bandwidth to/from this memory (bytes/s)
system.mem_ctrls.bw_total::.cpu.data        169101185                       # Total bandwidth to/from this memory (bytes/s)
system.mem_ctrls.bw_total::total            246834008                       # Total bandwidth to/from this memory (bytes/s)
system.mem_ctrls.avgPriority_.writebacks::samples     99290.00                       # Average QoS priority value for accepted requests
system.mem_ctrls.avgPriority_.cpu.inst::samples       838.00                       # Average QoS priority value for accepted requests
system.mem_ctrls.avgPriority_.cpu.data::samples    217798.00                       # Average QoS priority value for accepted requests
system.mem_ctrls.priorityMinLatency      0.000000018750                       # per QoS priority minimum request to response latency (s)
system.mem_ctrls.priorityMaxLatency      0.010568119500                       # per QoS priority maximum request to response latency (s)
system.mem_ctrls.numReadWriteTurnArounds         6062                       # Number of turnarounds from READ to WRITE
system.mem_ctrls.numWriteReadTurnArounds         6062                       # Number of turnarounds from WRITE to READ
system.mem_ctrls.numStayReadState              387657                       # Number of times bus staying in READ state
system.mem_ctrls.numStayWriteState              93324                       # Number of times bus staying in WRITE state
system.mem_ctrls.readReqs                      109329                       # Number of read requests accepted
system.mem_ctrls.writeReqs                      49645                       # Number of write requests accepted
system.mem_ctrls.readBursts                    218658                       # Number of DRAM read bursts, including those serviced by the write queue
system.mem_ctrls.writeBursts                    99290                       # Number of DRAM write bursts, including those merged in the write queue
system.mem_ctrls.servicedByWrQ                     22                       # Number of DRAM read bursts serviced by the write queue
system.mem_ctrls.mergedWrBursts                     0                       # Number of DRAM write bursts merged with an existing one
system.mem_ctrls.neitherReadNorWriteReqs            0                       # Number of requests that are neither read nor write
system.mem_ctrls.perBankRdBursts::0             13930                       # Per bank write bursts
system.mem_ctrls.perBankRdBursts::1             13864                       # Per bank write bursts
system.mem_ctrls.perBankRdBursts::2             13798                       # Per bank write bursts
system.mem_ctrls.perBankRdBursts::3             13538                       # Per bank write bursts
system.mem_ctrls.perBankRdBursts::4             13646                       # Per bank write bursts
system.mem_ctrls.perBankRdBursts::5             13624                       # Per bank write bursts
system.mem_ctrls.perBankRdBursts::6             13546                       # Per bank write bursts
system.mem_ctrls.perBankRdBursts::7             13708                       # Per bank write bursts
system.mem_ctrls.perBankRdBursts::8             13614                       # Per bank write bursts
system.mem_ctrls.perBankRdBursts::9             13588                       # Per bank write bursts
system.mem_ctrls.perBankRdBursts::10            13770                       # Per bank write bursts
system.mem_ctrls.perBankRdBursts::11            13732                       # Per bank write bursts
system.mem_ctrls.perBankRdBursts::12            13680                       # Per bank write bursts
system.mem_ctrls.perBankRdBursts::13            13480                       # Per bank write bursts
system.mem_ctrls.perBankRdBursts::14            13434                       # Per bank write bursts
system.mem_ctrls.perBankRdBursts::15            13684                       # Per bank write bursts
system.mem_ctrls.perBankWrBursts::0              6272                       # Per bank write bursts
system.mem_ctrls.perBankWrBursts::1              6278                       # Per bank write bursts
system.mem_ctrls.perBankWrBursts::2              6322                       # Per bank write bursts
system.mem_ctrls.perBankWrBursts::3              6300                       # Per bank write bursts
system.mem_ctrls.perBankWrBursts::4              6228                       # Per bank write bursts
system.mem_ctrls.perBankWrBursts::5              6196                       # Per bank write bursts
system.mem_ctrls.perBankWrBursts::6              6182                       # Per bank write bursts
system.mem_ctrls.perBankWrBursts::7              6272                       # Per bank write bursts
system.mem_ctrls.perBankWrBursts::8              6184                       # Per bank write bursts
system.mem_ctrls.perBankWrBursts::9              6144                       # Per bank write bursts
system.mem_ctrls.perBankWrBursts::10             6144                       # Per bank write bursts
system.mem_ctrls.perBankWrBursts::11             6151                       # Per bank write bursts
system.mem_ctrls.perBankWrBursts::12             6118                       # Per bank write bursts
system.mem_ctrls.perBankWrBursts::13             6146                       # Per bank write bursts
system.mem_ctrls.perBankWrBursts::14             6146                       # Per bank write bursts
system.mem_ctrls.perBankWrBursts::15             6188                       # Per bank write bursts
system.mem_ctrls.avgRdQLen                       2.06                       # Average read queue length when enqueuing
system.mem_ctrls.avgWrQLen                      25.32                       # Average write queue length when enqueuing
system.mem_ctrls.totQLat                   3779342750                       # Total ticks spent queuing
system.mem_ctrls.totBusLat                 1093180000                       # Total ticks spent in databus transfers
system.mem_ctrls.totMemAccLat              7878767750                       # Total ticks spent from burst creation until serviced by the DRAM
system.mem_ctrls.avgQLat                     17286.00                       # Average queueing delay per DRAM burst
system.mem_ctrls.avgBusLat                    5000.00                       # Average bus latency per DRAM burst
system.mem_ctrls.avgMemAccLat                36036.00                       # Average memory access latency per DRAM burst
system.mem_ctrls.numRdRetry                         0                       # Number of times read queue was full causing retry
system.mem_ctrls.numWrRetry                         0                       # Number of times write queue was full causing retry
system.mem_ctrls.readRowHits                   185466                       # Number of row buffer hits during reads
system.mem_ctrls.writeRowHits                   86307                       # Number of row buffer hits during writes
system.mem_ctrls.readRowHitRate                 84.83                       # Row buffer hit rate for reads
system.mem_ctrls.writeRowHitRate                86.92                       # Row buffer hit rate for writes
system.mem_ctrls.readPktSize::0                     0                       # Read request sizes (log2)
system.mem_ctrls.readPktSize::1                     0                       # Read request sizes (log2)
system.mem_ctrls.readPktSize::2                     0                       # Read request sizes (log2)
system.mem_ctrls.readPktSize::3                     0                       # Read request sizes (log2)
system.mem_ctrls.readPktSize::4                     0                       # Read request sizes (log2)
system.mem_ctrls.readPktSize::5                     0                       # Read request sizes (log2)
system.mem_ctrls.readPktSize::6                218658                       # Read request sizes (log2)
system.mem_ctrls.writePktSize::0                    0                       # Write request sizes (log2)
system.mem_ctrls.writePktSize::1                    0                       # Write request sizes (log2)
system.mem_ctrls.writePktSize::2                    0                       # Write request sizes (log2)
system.mem_ctrls.writePktSize::3                    0                       # Write request sizes (log2)
system.mem_ctrls.writePktSize::4                    0                       # Write request sizes (log2)
system.mem_ctrls.writePktSize::5                    0                       # Write request sizes (log2)
system.mem_ctrls.writePktSize::6                99290                       # Write request sizes (log2)
system.mem_ctrls.rdQLenPdf::0                   91899                       # What read queue length does an incoming req see
system.mem_ctrls.rdQLenPdf::1                   92141                       # What read queue length does an incoming req see
system.mem_ctrls.rdQLenPdf::2                   17413                       # What read queue length does an incoming req see
system.mem_ctrls.rdQLenPdf::3                   17172                       # What read queue length does an incoming req see
system.mem_ctrls.rdQLenPdf::4                       5                       # What read queue length does an incoming req see
system.mem_ctrls.rdQLenPdf::5                       4                       # What read queue length does an incoming req see
system.mem_ctrls.rdQLenPdf::6                       1                       # What read queue length does an incoming req see
system.mem_ctrls.rdQLenPdf::7                       1                       # What read queue length does an incoming req see
system.mem_ctrls.rdQLenPdf::8                       0                       # What read queue length does an incoming req see
system.mem_ctrls.rdQLenPdf::9                       0                       # What read queue length does an incoming req see
system.mem_ctrls.rdQLenPdf::10                      0                       # What read queue length does an incoming req see
system.mem_ctrls.rdQLenPdf::11                      0                       # What read queue length does an incoming req see
system.mem_ctrls.rdQLenPdf::12                      0                       # What read queue length does an incoming req see
system.mem_ctrls.rdQLenPdf::13                      0                       # What read queue length does an incoming req see
system.mem_ctrls.rdQLenPdf::14                      0                       # What read queue length does an incoming req see
system.mem_ctrls.rdQLenPdf::15                      0                       # What read queue length does an incoming req see
system.mem_ctrls.rdQLenPdf::16                      0                       # What read queue length does an incoming req see
system.mem_ctrls.rdQLenPdf::17                      0                       # What read queue length does an incoming req see
system.mem_ctrls.rdQLenPdf::18                      0                       # What read queue length does an incoming req see
system.mem_ctrls.rdQLenPdf::19                      0                       # What read queue length does an incoming req see
system.mem_ctrls.rdQLenPdf::20                      0                       # What read queue length does an incoming req see
system.mem_ctrls.rdQLenPdf::21                      0                       # What read queue length does an incoming req see
system.mem_ctrls.rdQLenPdf::22                      0                       # What read queue length does an incoming req see
system.mem_ctrls.rdQLenPdf::23                      0                       # What read queue length does an incoming req see
system.mem_ctrls.rdQLenPdf::24                      0                       # What read queue length does an incoming req see
system.mem_ctrls.rdQLenPdf::25                      0                       # What read queue length does an incoming req see
system.mem_ctrls.rdQLenPdf::26                      0                       # What read queue length does an incoming req see
system.mem_ctrls.rdQLenPdf::27                      0                       # What read queue length does an incoming req see
system.mem_ctrls.rdQLenPdf::28                      0                       # What read queue length does an incoming req see
system.mem_ctrls.rdQLenPdf::29                      0                       # What read queue length does an incoming req see
system.mem_ctrls.rdQLenPdf::30                      0                       # What read queue length does an incoming req see
system.mem_ctrls.rdQLenPdf::31                      0                       # What read queue length does an incoming req see
system.mem_ctrls.wrQLenPdf::0                       1                       # What write queue length does an incoming req see
system.mem_ctrls.wrQLenPdf::1                       1                       # What write queue length does an incoming req see
system.mem_ctrls.wrQLenPdf::2                       1                       # What write queue length does an incoming req see
system.mem_ctrls.wrQLenPdf::3                       1                       # What write queue length does an incoming req see
system.mem_ctrls.wrQLenPdf::4                       1                       # What write queue length does an incoming req see
system.mem_ctrls.wrQLenPdf::5                       1                       # What write queue length does an incoming req see
system.mem_ctrls.wrQLenPdf::6                       1                       # What write queue length does an incoming req see
system.mem_ctrls.wrQLenPdf::7                       1                       # What write queue length does an incoming req see
system.mem_ctrls.wrQLenPdf::8                       1                       # What write queue length does an incoming req see
system.mem_ctrls.wrQLenPdf::9                       1                       # What write queue length does an incoming req see
system.mem_ctrls.wrQLenPdf::10                      1                       # What write queue length does an incoming req see
system.mem_ctrls.wrQLenPdf::11                      1                       # What write queue length does an incoming req see
system.mem_ctrls.wrQLenPdf::12                      1                       # What write queue length does an incoming req see
system.mem_ctrls.wrQLenPdf::13                      1                       # What write queue length does an incoming req see
system.mem_ctrls.wrQLenPdf::14                      1                       # What write queue length does an incoming req see
system.mem_ctrls.wrQLenPdf::15                   1069                       # What write queue length does an incoming req see
system.mem_ctrls.wrQLenPdf::16                   1079                       # What write queue length does an incoming req see
system.mem_ctrls.wrQLenPdf::17                   3315                       # What write queue length does an incoming req see
system.mem_ctrls.wrQLenPdf::18                   3752                       # What write queue length does an incoming req see
system.mem_ctrls.wrQLenPdf::19                   4529                       # What write queue length does an incoming req see
system.mem_ctrls.wrQLenPdf::20                   6120                       # What write queue length does an incoming req see
system.mem_ctrls.wrQLenPdf::21                   6125                       # What write queue length does an incoming req see
system.mem_ctrls.wrQLenPdf::22                   6117                       # What write queue length does an incoming req see
system.mem_ctrls.wrQLenPdf::23                   6094                       # What write queue length does an incoming req see
system.mem_ctrls.wrQLenPdf::24                   6605                       # What write queue length does an incoming req see
system.mem_ctrls.wrQLenPdf::25                   6955                       # What write queue length does an incoming req see
system.mem_ctrls.wrQLenPdf::26                   7561                       # What write queue length does an incoming req see
system.mem_ctrls.wrQLenPdf::27                   7245                       # What write queue length does an incoming req see
system.mem_ctrls.wrQLenPdf::28                   6156                       # What write queue length does an incoming req see
system.mem_ctrls.wrQLenPdf::29                   6216                       # What write queue length does an incoming req see
system.mem_ctrls.wrQLenPdf::30                   6175                       # What write queue length does an incoming req see
system.mem_ctrls.wrQLenPdf::31                   6072                       # What write queue length does an incoming req see
system.mem_ctrls.wrQLenPdf::32                   6064                       # What write queue length does an incoming req see
system.mem_ctrls.wrQLenPdf::33                   2015                       # What write queue length does an incoming req see
system.mem_ctrls.wrQLenPdf::34                      8                       # What write queue length does an incoming req see
system.mem_ctrls.wrQLenPdf::35                      3                       # What write queue length does an incoming req see
system.mem_ctrls.wrQLenPdf::36                      0                       # What write queue length does an incoming req see
system.mem_ctrls.wrQLenPdf::37                      0                       # What write queue length does an incoming req see
system.mem_ctrls.wrQLenPdf::38                      0                       # What write queue length does an incoming req see
system.mem_ctrls.wrQLenPdf::39                      0                       # What write queue length does an incoming req see
system.mem_ctrls.wrQLenPdf::40                      0                       # What write queue length does an incoming req see
system.mem_ctrls.wrQLenPdf::41                      0                       # What write queue length does an incoming req see
system.mem_ctrls.wrQLenPdf::42                      0                       # What write queue length does an incoming req see
system.mem_ctrls.wrQLenPdf::43                      0                       # What write queue length does an incoming req see
system.mem_ctrls.wrQLenPdf::44                      0                       # What write queue length does an incoming req see
system.mem_ctrls.wrQLenPdf::45                      0                       # What write queue length does an incoming req see
system.mem_ctrls.wrQLenPdf::46                      0                       # What write queue length does an incoming req see
system.mem_ctrls.wrQLenPdf::47                      0                       # What write queue length does an incoming req see
system.mem_ctrls.wrQLenPdf::48                      0                       # What write queue length does an incoming req see
system.mem_ctrls.wrQLenPdf::49                      0                       # What write queue length does an incoming req see
system.mem_ctrls.wrQLenPdf::50                      0                       # What write queue length does an incoming req see
system.mem_ctrls.wrQLenPdf::51                      0                       # What write queue length does an incoming req see
system.mem_ctrls.wrQLenPdf::52                      0                       # What write queue length does an incoming req see
system.mem_ctrls.wrQLenPdf::53                      0                       # What write queue length does an incoming req see
system.mem_ctrls.wrQLenPdf::54                      0                       # What write queue length does an incoming req see
system.mem_ctrls.wrQLenPdf::55                      0                       # What write queue length does an incoming req see
system.mem_ctrls.wrQLenPdf::56                      0                       # What write queue length does an incoming req see
system.mem_ctrls.wrQLenPdf::57                      0                       # What write queue length does an incoming req see
system.mem_ctrls.wrQLenPdf::58                      0                       # What write queue length does an incoming req see
system.mem_ctrls.wrQLenPdf::59                      0                       # What write queue length does an incoming req see
system.mem_ctrls.wrQLenPdf::60                      0                       # What write queue length does an incoming req see
system.mem_ctrls.wrQLenPdf::61                      0                       # What write queue length does an incoming req see
system.mem_ctrls.wrQLenPdf::62                      0                       # What write queue length does an incoming req see
system.mem_ctrls.wrQLenPdf::63                      0                       # What write queue length does an incoming req see
system.mem_ctrls.bytesPerActivate::samples        46134                       # Bytes accessed per row activation
system.mem_ctrls.bytesPerActivate::mean    441.020679                       # Bytes accessed per row activation
system.mem_ctrls.bytesPerActivate::gmean   280.466498                       # Bytes accessed per row activation
system.mem_ctrls.bytesPerActivate::stdev   396.641083                       # Bytes accessed per row activation
system.mem_ctrls.bytesPerActivate::0-127         1097      2.38%      2.38% # Bytes accessed per row activation
system.mem_ctrls.bytesPerActivate::128-255        24417     52.93%     55.30% # Bytes accessed per row activation
system.mem_ctrls.bytesPerActivate::256-383         2232      4.84%     60.14% # Bytes accessed per row activation
system.mem_ctrls.bytesPerActivate::384-511         1157      2.51%     62.65% # Bytes accessed per row activation
system.mem_ctrls.bytesPerActivate::512-639         1356      2.94%     65.59% # Bytes accessed per row activation
system.mem_ctrls.bytesPerActivate::640-767         1531      3.32%     68.91% # Bytes accessed per row activation
system.mem_ctrls.bytesPerActivate::768-895          776      1.68%     70.59% # Bytes accessed per row activation
system.mem_ctrls.bytesPerActivate::896-1023         1016      2.20%     72.79% # Bytes accessed per row activation
system.mem_ctrls.bytesPerActivate::1024-1151        12552     27.21%    100.00% # Bytes accessed per row activation
system.mem_ctrls.bytesPerActivate::total        46134                       # Bytes accessed per row activation
system.mem_ctrls.rdPerTurnAround::samples         6062                       # Reads before turning the bus around for writes
system.mem_ctrls.rdPerTurnAround::mean      36.066645                       # Reads before turning the bus around for writes
system.mem_ctrls.rdPerTurnAround::gmean     25.215951                       # Reads before turning the bus around for writes
system.mem_ctrls.rdPerTurnAround::stdev    119.368042                       # Reads before turning the bus around for writes
system.mem_ctrls.rdPerTurnAround::0-511          6060     99.97%     99.97% # Reads before turning the bus around for writes
system.mem_ctrls.rdPerTurnAround::512-1023            1      0.02%     99.98% # Reads before turning the bus around for writes
system.mem_ctrls.rdPerTurnAround::8704-9215            1      0.02%    100.00% # Reads before turning the bus around for writes
system.mem_ctrls.rdPerTurnAround::total          6062                       # Reads before turning the bus around for writes
system.mem_ctrls.wrPerTurnAround::samples         6062                       # Writes before turning the bus around for reads
system.mem_ctrls.wrPerTurnAround::mean      16.375949                       # Writes before turning the bus around for reads
system.mem_ctrls.wrPerTurnAround::gmean     16.356548                       # Writes before turning the bus around for reads
system.mem_ctrls.wrPerTurnAround::stdev      0.822290                       # Writes before turning the bus around for reads
system.mem_ctrls.wrPerTurnAround::16             4966     81.92%     81.92% # Writes before turning the bus around for reads
system.mem_ctrls.wrPerTurnAround::17               12      0.20%     82.12% # Writes before turning the bus around for reads
system.mem_ctrls.wrPerTurnAround::18             1032     17.02%     99.14% # Writes before turning the bus around for reads
[...]
system.cpu.icache.ReadReq_avg_miss_latency::total 71561.808118                       # average ReadReq miss latency
system.cpu.icache.ReadReq_mshr_misses::.cpu.inst          542                       # number of ReadReq MSHR misses
system.cpu.icache.ReadReq_mshr_misses::total          542                       # number of ReadReq MSHR misses
system.cpu.icache.ReadReq_mshr_miss_latency::.cpu.inst     38244500                       # number of ReadReq MSHR miss cycles
system.cpu.icache.ReadReq_mshr_miss_latency::total     38244500                       # number of ReadReq MSHR miss cycles
system.cpu.icache.ReadReq_mshr_miss_rate::.cpu.inst     0.000067                       # mshr miss rate for ReadReq accesses
system.cpu.icache.ReadReq_mshr_miss_rate::total     0.000067                       # mshr miss rate for ReadReq accesses
system.cpu.icache.ReadReq_avg_mshr_miss_latency::.cpu.inst 70561.808118                       # average ReadReq mshr miss latency
system.cpu.icache.ReadReq_avg_mshr_miss_latency::total 70561.808118                       # average ReadReq mshr miss latency
system.cpu.icache.tags.pwrStateResidencyTicks::UNDEFINED  82438689000                       # Cumulative time (in ticks) in various power states
system.cpu.icache.tags.tagsinuse           204.867783                       # Cycle average of tags in use
system.cpu.icache.tags.total_refs             8051206                       # Total number of references to valid blocks.
system.cpu.icache.tags.sampled_refs               542                       # Sample count of references to valid blocks.
system.cpu.icache.tags.avg_refs          14854.623616                       # Average number of references to valid blocks.
system.cpu.icache.tags.warmup_cycle             92500                       # Cycle when the warmup percentage was hit.
system.cpu.icache.tags.occ_blocks::.cpu.inst   204.867783                       # Average occupied blocks per requestor
system.cpu.icache.tags.occ_percent::.cpu.inst     0.800265                       # Average percentage of cache occupancy
system.cpu.icache.tags.occ_percent::total     0.800265                       # Average percentage of cache occupancy
system.cpu.icache.tags.occ_task_id_blocks::1024          238                       # Occupied blocks per task id
system.cpu.icache.tags.age_task_id_blocks_1024::3           52                       # Occupied blocks per task id
system.cpu.icache.tags.age_task_id_blocks_1024::4          186                       # Occupied blocks per task id
system.cpu.icache.tags.occ_task_id_percent::1024     0.929688                       # Percentage of cache occupancy per task id
system.cpu.icache.tags.tag_accesses          16102954                       # Number of tag accesses
system.cpu.icache.tags.data_accesses         16102954                       # Number of data accesses
system.cpu.dtb.walker.pwrStateResidencyTicks::UNDEFINED  82438689000                       # Cumulative time (in ticks) in various power states
system.cpu.dtb.stage2_mmu.stage2_tlb.walker.pwrStateResidencyTicks::UNDEFINED  82438689000                       # Cumulative time (in ticks) in various power states
system.cpu.dcache.pwrStateResidencyTicks::UNDEFINED  82438689000                       # Cumulative time (in ticks) in various power states
system.cpu.dcache.demand_hits::.cpu.data     51317864                       # number of demand (read+write) hits
system.cpu.dcache.demand_hits::total         51317864                       # number of demand (read+write) hits
system.cpu.dcache.overall_hits::.cpu.data     51318429                       # number of overall hits
system.cpu.dcache.overall_hits::total        51318429                       # number of overall hits
system.cpu.dcache.demand_misses::.cpu.data       739789                       # number of demand (read+write) misses
system.cpu.dcache.demand_misses::total         739789                       # number of demand (read+write) misses
system.cpu.dcache.overall_misses::.cpu.data       747642                       # number of overall misses
system.cpu.dcache.overall_misses::total        747642                       # number of overall misses
system.cpu.dcache.demand_miss_latency::.cpu.data  19979046000                       # number of demand (read+write) miss cycles
system.cpu.dcache.demand_miss_latency::total  19979046000                       # number of demand (read+write) miss cycles
system.cpu.dcache.overall_miss_latency::.cpu.data  19979046000                       # number of overall miss cycles
system.cpu.dcache.overall_miss_latency::total  19979046000                       # number of overall miss cycles
system.cpu.dcache.demand_accesses::.cpu.data     52057653                       # number of demand (read+write) accesses
system.cpu.dcache.demand_accesses::total     52057653                       # number of demand (read+write) accesses
system.cpu.dcache.overall_accesses::.cpu.data     52066071                       # number of overall (read+write) accesses
system.cpu.dcache.overall_accesses::total     52066071                       # number of overall (read+write) accesses
system.cpu.dcache.demand_miss_rate::.cpu.data     0.014211                       # miss rate for demand accesses
system.cpu.dcache.demand_miss_rate::total     0.014211                       # miss rate for demand accesses
system.cpu.dcache.overall_miss_rate::.cpu.data     0.014359                       # miss rate for overall accesses
system.cpu.dcache.overall_miss_rate::total     0.014359                       # miss rate for overall accesses
system.cpu.dcache.demand_avg_miss_latency::.cpu.data 27006.411288                       # average overall miss latency
system.cpu.dcache.demand_avg_miss_latency::total 27006.411288                       # average overall miss latency
system.cpu.dcache.overall_avg_miss_latency::.cpu.data 26722.744308                       # average overall miss latency
system.cpu.dcache.overall_avg_miss_latency::total 26722.744308                       # average overall miss latency
system.cpu.dcache.blocked_cycles::no_mshrs            0                       # number of cycles access was blocked
system.cpu.dcache.blocked_cycles::no_targets            0                       # number of cycles access was blocked
system.cpu.dcache.blocked::no_mshrs                 0                       # number of cycles access was blocked
system.cpu.dcache.blocked::no_targets               0                       # number of cycles access was blocked
system.cpu.dcache.avg_blocked_cycles::no_mshrs          nan                       # average number of cycles each access was blocked
system.cpu.dcache.avg_blocked_cycles::no_targets          nan                       # average number of cycles each access was blocked
system.cpu.dcache.writebacks::.writebacks       675444                       # number of writebacks
system.cpu.dcache.writebacks::total            675444                       # number of writebacks
system.cpu.dcache.demand_mshr_hits::.cpu.data        34977                       # number of demand (read+write) MSHR hits
system.cpu.dcache.demand_mshr_hits::total        34977                       # number of demand (read+write) MSHR hits
system.cpu.dcache.overall_mshr_hits::.cpu.data        34977                       # number of overall MSHR hits
system.cpu.dcache.overall_mshr_hits::total        34977                       # number of overall MSHR hits
system.cpu.dcache.demand_mshr_misses::.cpu.data       704812                       # number of demand (read+write) MSHR misses
system.cpu.dcache.demand_mshr_misses::total       704812                       # number of demand (read+write) MSHR misses
system.cpu.dcache.overall_mshr_misses::.cpu.data       708767                       # number of overall MSHR misses
system.cpu.dcache.overall_mshr_misses::total       708767                       # number of overall MSHR misses
system.cpu.dcache.demand_mshr_miss_latency::.cpu.data  16847409000                       # number of demand (read+write) MSHR miss cycles
system.cpu.dcache.demand_mshr_miss_latency::total  16847409000                       # number of demand (read+write) MSHR miss cycles
system.cpu.dcache.overall_mshr_miss_latency::.cpu.data  17178110000                       # number of overall MSHR miss cycles
system.cpu.dcache.overall_mshr_miss_latency::total  17178110000                       # number of overall MSHR miss cycles
system.cpu.dcache.demand_mshr_miss_rate::.cpu.data     0.013539                       # mshr miss rate for demand accesses
system.cpu.dcache.demand_mshr_miss_rate::total     0.013539                       # mshr miss rate for demand accesses
system.cpu.dcache.overall_mshr_miss_rate::.cpu.data     0.013613                       # mshr miss rate for overall accesses
system.cpu.dcache.overall_mshr_miss_rate::total     0.013613                       # mshr miss rate for overall accesses
system.cpu.dcache.demand_avg_mshr_miss_latency::.cpu.data 23903.408285                       # average overall mshr miss latency
system.cpu.dcache.demand_avg_mshr_miss_latency::total 23903.408285                       # average overall mshr miss latency
system.cpu.dcache.overall_avg_mshr_miss_latency::.cpu.data 24236.610903                       # average overall mshr miss latency
system.cpu.dcache.overall_avg_mshr_miss_latency::total 24236.610903                       # average overall mshr miss latency
system.cpu.dcache.replacements                 708255                       # number of replacements
system.cpu.dcache.ReadReq_hits::.cpu.data     40689745                       # number of ReadReq hits
system.cpu.dcache.ReadReq_hits::total        40689745                       # number of ReadReq hits
system.cpu.dcache.ReadReq_misses::.cpu.data       417829                       # number of ReadReq misses
system.cpu.dcache.ReadReq_misses::total        417829                       # number of ReadReq misses
system.cpu.dcache.ReadReq_miss_latency::.cpu.data   7536188000                       # number of ReadReq miss cycles
system.cpu.dcache.ReadReq_miss_latency::total   7536188000                       # number of ReadReq miss cycles
system.cpu.dcache.ReadReq_accesses::.cpu.data     41107574                       # number of ReadReq accesses(hits+misses)
system.cpu.dcache.ReadReq_accesses::total     41107574                       # number of ReadReq accesses(hits+misses)
system.cpu.dcache.ReadReq_miss_rate::.cpu.data     0.010164                       # miss rate for ReadReq accesses
system.cpu.dcache.ReadReq_miss_rate::total     0.010164                       # miss rate for ReadReq accesses
system.cpu.dcache.ReadReq_avg_miss_latency::.cpu.data 18036.536478                       # average ReadReq miss latency
system.cpu.dcache.ReadReq_avg_miss_latency::total 18036.536478                       # average ReadReq miss latency
system.cpu.dcache.ReadReq_mshr_hits::.cpu.data         2272                       # number of ReadReq MSHR hits
system.cpu.dcache.ReadReq_mshr_hits::total         2272                       # number of ReadReq MSHR hits
system.cpu.dcache.ReadReq_mshr_misses::.cpu.data       415557                       # number of ReadReq MSHR misses
system.cpu.dcache.ReadReq_mshr_misses::total       415557                       # number of ReadReq MSHR misses
system.cpu.dcache.ReadReq_mshr_miss_latency::.cpu.data   6967876500                       # number of ReadReq MSHR miss cycles
system.cpu.dcache.ReadReq_mshr_miss_latency::total   6967876500                       # number of ReadReq MSHR miss cycles
system.cpu.dcache.ReadReq_mshr_miss_rate::.cpu.data     0.010109                       # mshr miss rate for ReadReq accesses
system.cpu.dcache.ReadReq_mshr_miss_rate::total     0.010109                       # mshr miss rate for ReadReq accesses
system.cpu.dcache.ReadReq_avg_mshr_miss_latency::.cpu.data 16767.558963                       # average ReadReq mshr miss latency
system.cpu.dcache.ReadReq_avg_mshr_miss_latency::total 16767.558963                       # average ReadReq mshr miss latency
system.cpu.dcache.WriteReq_hits::.cpu.data     10628119                       # number of WriteReq hits
system.cpu.dcache.WriteReq_hits::total       10628119                       # number of WriteReq hits
system.cpu.dcache.WriteReq_misses::.cpu.data       321960                       # number of WriteReq misses
system.cpu.dcache.WriteReq_misses::total       321960                       # number of WriteReq misses
system.cpu.dcache.WriteReq_miss_latency::.cpu.data  12442858000                       # number of WriteReq miss cycles
system.cpu.dcache.WriteReq_miss_latency::total  12442858000                       # number of WriteReq miss cycles
system.cpu.dcache.WriteReq_accesses::.cpu.data     10950079                       # number of WriteReq accesses(hits+misses)
system.cpu.dcache.WriteReq_accesses::total     10950079                       # number of WriteReq accesses(hits+misses)
system.cpu.dcache.WriteReq_miss_rate::.cpu.data     0.029403                       # miss rate for WriteReq accesses
system.cpu.dcache.WriteReq_miss_rate::total     0.029403                       # miss rate for WriteReq accesses
system.cpu.dcache.WriteReq_avg_miss_latency::.cpu.data 38647.217046                       # average WriteReq miss latency
system.cpu.dcache.WriteReq_avg_miss_latency::total 38647.217046                       # average WriteReq miss latency
system.cpu.dcache.WriteReq_mshr_hits::.cpu.data        32705                       # number of WriteReq MSHR hits
system.cpu.dcache.WriteReq_mshr_hits::total        32705                       # number of WriteReq MSHR hits
system.cpu.dcache.WriteReq_mshr_misses::.cpu.data       289255                       # number of WriteReq MSHR misses
system.cpu.dcache.WriteReq_mshr_misses::total       289255                       # number of WriteReq MSHR misses
system.cpu.dcache.WriteReq_mshr_miss_latency::.cpu.data   9879532500                       # number of WriteReq MSHR miss cycles
system.cpu.dcache.WriteReq_mshr_miss_latency::total   9879532500                       # number of WriteReq MSHR miss cycles
system.cpu.dcache.WriteReq_mshr_miss_rate::.cpu.data     0.026416                       # mshr miss rate for WriteReq accesses
system.cpu.dcache.WriteReq_mshr_miss_rate::total     0.026416                       # mshr miss rate for WriteReq accesses
system.cpu.dcache.WriteReq_avg_mshr_miss_latency::.cpu.data 34155.096714                       # average WriteReq mshr miss latency
system.cpu.dcache.WriteReq_avg_mshr_miss_latency::total 34155.096714                       # average WriteReq mshr miss latency
system.cpu.dcache.SoftPFReq_hits::.cpu.data          565                       # number of SoftPFReq hits
system.cpu.dcache.SoftPFReq_hits::total           565                       # number of SoftPFReq hits
system.cpu.dcache.SoftPFReq_misses::.cpu.data         7853                       # number of SoftPFReq misses
system.cpu.dcache.SoftPFReq_misses::total         7853                       # number of SoftPFReq misses
system.cpu.dcache.SoftPFReq_accesses::.cpu.data         8418                       # number of SoftPFReq accesses(hits+misses)
system.cpu.dcache.SoftPFReq_accesses::total         8418                       # number of SoftPFReq accesses(hits+misses)
system.cpu.dcache.SoftPFReq_miss_rate::.cpu.data     0.932882                       # miss rate for SoftPFReq accesses
system.cpu.dcache.SoftPFReq_miss_rate::total     0.932882                       # miss rate for SoftPFReq accesses
system.cpu.dcache.SoftPFReq_mshr_misses::.cpu.data         3955                       # number of SoftPFReq MSHR misses
system.cpu.dcache.SoftPFReq_mshr_misses::total         3955                       # number of SoftPFReq MSHR misses
system.cpu.dcache.SoftPFReq_mshr_miss_latency::.cpu.data    330701000                       # number of SoftPFReq MSHR miss cycles
system.cpu.dcache.SoftPFReq_mshr_miss_latency::total    330701000                       # number of SoftPFReq MSHR miss cycles
system.cpu.dcache.SoftPFReq_mshr_miss_rate::.cpu.data     0.469827                       # mshr miss rate for SoftPFReq accesses
system.cpu.dcache.SoftPFReq_mshr_miss_rate::total     0.469827                       # mshr miss rate for SoftPFReq accesses
system.cpu.dcache.SoftPFReq_avg_mshr_miss_latency::.cpu.data 83615.929204                       # average SoftPFReq mshr miss latency
system.cpu.dcache.SoftPFReq_avg_mshr_miss_latency::total 83615.929204                       # average SoftPFReq mshr miss latency
system.cpu.dcache.LoadLockedReq_hits::.cpu.data           38                       # number of LoadLockedReq hits
system.cpu.dcache.LoadLockedReq_hits::total           38                       # number of LoadLockedReq hits
system.cpu.dcache.LoadLockedReq_accesses::.cpu.data           38                       # number of LoadLockedReq accesses(hits+misses)
system.cpu.dcache.LoadLockedReq_accesses::total           38                       # number of LoadLockedReq accesses(hits+misses)
system.cpu.dcache.StoreCondReq_hits::.cpu.data           38                       # number of StoreCondReq hits
system.cpu.dcache.StoreCondReq_hits::total           38                       # number of StoreCondReq hits
system.cpu.dcache.StoreCondReq_accesses::.cpu.data           38                       # number of StoreCondReq accesses(hits+misses)
system.cpu.dcache.StoreCondReq_accesses::total           38                       # number of StoreCondReq accesses(hits+misses)
system.cpu.dcache.tags.pwrStateResidencyTicks::UNDEFINED  82438689000                       # Cumulative time (in ticks) in various power states
system.cpu.dcache.tags.tagsinuse           504.375574                       # Cycle average of tags in use
system.cpu.dcache.tags.total_refs            52027272                       # Total number of references to valid blocks.
system.cpu.dcache.tags.sampled_refs            708767                       # Sample count of references to valid blocks.
system.cpu.dcache.tags.avg_refs             73.405325                       # Average number of references to valid blocks.
system.cpu.dcache.tags.warmup_cycle            186500                       # Cycle when the warmup percentage was hit.
system.cpu.dcache.tags.occ_blocks::.cpu.data   504.375574                       # Average occupied blocks per requestor
system.cpu.dcache.tags.occ_percent::.cpu.data     0.985109                       # Average percentage of cache occupancy
system.cpu.dcache.tags.occ_percent::total     0.985109                       # Average percentage of cache occupancy
system.cpu.dcache.tags.occ_task_id_blocks::1024          512                       # Occupied blocks per task id
system.cpu.dcache.tags.age_task_id_blocks_1024::0          238                       # Occupied blocks per task id
system.cpu.dcache.tags.age_task_id_blocks_1024::1          232                       # Occupied blocks per task id
system.cpu.dcache.tags.age_task_id_blocks_1024::2           40                       # Occupied blocks per task id
system.cpu.dcache.tags.age_task_id_blocks_1024::3            2                       # Occupied blocks per task id
system.cpu.dcache.tags.occ_task_id_percent::1024            1                       # Percentage of cache occupancy per task id
system.cpu.dcache.tags.tag_accesses         104841061                       # Number of tag accesses
system.cpu.dcache.tags.data_accesses        104841061                       # Number of data accesses
system.cpu.itb.walker.pwrStateResidencyTicks::UNDEFINED  82438689000                       # Cumulative time (in ticks) in various power states
system.cpu.itb.stage2_mmu.stage2_tlb.walker.pwrStateResidencyTicks::UNDEFINED  82438689000                       # Cumulative time (in ticks) in various power states

---------- End Simulation Statistics   ----------
